@<TRIPOS>MOLECULE
*****
 43 46 0 0 0
SMALL
GASTEIGER

@<TRIPOS>ATOM
      1 C         142.7308  139.3762  159.7907 C.3     1  UNL1        0.0781
      2 C         143.0848  138.8697  161.1575 C.3     1  UNL1        0.0372
      3 C         143.8848  139.7283  162.0916 C.3     1  UNL1        0.0738
      4 N         144.3309  141.0935  161.6590 N.3     1  UNL1       -0.2726
      5 C         143.9770  141.6001  160.2922 C.3     1  UNL1        0.0738
      6 C         143.1769  140.7415  159.3580 C.3     1  UNL1        0.0372
      7 N         141.9307  138.5176  158.8566 N.am    1  UNL1       -0.2808
      8 C         140.4534  138.7364  158.7165 C.2     1  UNL1        0.2300
      9 O         139.6533  137.8778  157.7823 O.2     1  UNL1       -0.2745
     10 C         142.9217  137.6619  156.6126 C.3     1  UNL1        0.0233
     11 C         142.6080  137.4402  158.0625 C.3     1  UNL1        0.0934
     12 C         139.7761  139.8138  159.5105 C.3     1  UNL1        0.1116
     13 C         139.4500  139.5870  160.9570 C.ar    1  UNL1       -0.0130
     14 C         139.5038  140.7305  161.9262 C.ar    1  UNL1       -0.0025
     15 C         139.1777  140.5036  163.3726 C.ar    1  UNL1        0.0180
     16 C         138.7978  139.1332  163.8498 C.ar    1  UNL1        0.1057
     17 C         138.7440  137.9897  162.8806 C.ar    1  UNL1        0.0180
     18 C         139.0701  138.2166  161.4342 C.ar    1  UNL1       -0.0025
     19 S         138.4717  138.9064  165.2963 S.O2    1  UNL1        0.0104
     20 C         138.1456  138.6796  166.7427 C.3     1  UNL1        0.1816
     21 O         138.1217  140.3574  165.4449 O.2     1  UNL1       -0.1686
     22 O         138.8216  137.4554  165.1477 O.2     1  UNL1       -0.1686
     23 C         145.1310  141.9522  162.5932 C.3     1  UNL1        0.0724
     24 C         144.4997  143.1515  163.2358 C.3     1  UNL1        0.0217
     25 C         143.1533  143.0322  163.8862 C.3     1  UNL1        0.0239
     26 C         141.9668  143.7276  163.2873 C.ar    1  UNL1       -0.0194
     27 C         142.0757  144.3657  161.9342 C.ar    1  UNL1        0.0254
     28 C         140.8891  145.0611  161.3353 C.ar    1  UNL1        0.1407
     29 F         140.9980  145.6993  159.9822 F       1  UNL1       -0.2042
     30 C         139.5938  145.1184  162.0895 C.ar    1  UNL1        0.0410
     31 C         139.4850  144.4803  163.4426 C.ar    1  UNL1        0.0596
     32 CL        138.1896  144.5375  164.1968 Cl      1  UNL1       -0.0822
     33 C         140.6714  143.7849  164.0415 C.ar    1  UNL1        0.0073
     34 C         142.9933  142.2176  165.1355 C.3     1  UNL1        0.0070
     35 C         142.4842  140.8091  165.0524 C.3     1  UNL1        0.0195
     36 C         142.3242  139.9945  166.3017 C.3     1  UNL1        0.0954
     37 N         142.6734  140.5883  167.6341 N.3     1  UNL1       -0.1594
     38 C         143.1825  141.9968  167.7173 C.3     1  UNL1        0.0954
     39 C         143.3425  142.8115  166.4679 C.3     1  UNL1        0.0195
     40 S         142.5134  139.7737  168.8834 S.O2    1  UNL1        0.0457
     41 C         142.3535  138.9591  170.1328 C.3     1  UNL1        0.1960
     42 O         143.2375  138.6328  168.2322 O.2     1  UNL1       -0.1572
     43 O         141.7894  140.9146  169.5346 O.2     1  UNL1       -0.1572
@<TRIPOS>BOND
     1    10    11    1
     2    11     7    1
     3     7     8   am
     4     8     9    2
     5     8    12    1
     6    12    13    1
     7    13    14   ar
     8    14    15   ar
     9    15    16   ar
    10    16    19    1
    11    19    20    1
    12    19    21    2
    13    19    22    2
    14    16    17   ar
    15    17    18   ar
    16     7     1    1
    17     1     2    1
    18     2     3    1
    19     3     4    1
    20     4    23    1
    21    23    24    1
    22    25    24    1
    23    25    26    1
    24    26    27   ar
    25    27    28   ar
    26    28    29    1
    27    28    30   ar
    28    30    31   ar
    29    31    32    1
    30    31    33   ar
    31    25    34    1
    32    34    35    1
    33    35    36    1
    34    36    37    1
    35    37    40    1
    36    40    41    1
    37    40    42    2
    38    40    43    2
    39    37    38    1
    40    38    39    1
    41     4     5    1
    42     5     6    1
    43    18    13   ar
    44     6     1    1
    45    33    26   ar
    46    39    34    1
@<TRIPOS>MOLECULE
*****
 43 46 0 0 0
SMALL
GASTEIGER

@<TRIPOS>ATOM
      1 C         142.6997  139.3007  159.7236 C.3     1  UNL1        0.0781
      2 C         143.1536  140.6600  159.2806 C.3     1  UNL1        0.0372
      3 C         143.9638  141.5187  160.2060 C.3     1  UNL1        0.0738
      4 N         144.3200  141.0181  161.5744 N.3     1  UNL1       -0.2726
      5 C         143.8660  139.6587  162.0174 C.3     1  UNL1        0.0738
      6 C         143.0559  138.8001  161.0920 C.3     1  UNL1        0.0372
      7 N         141.8896  138.4421  158.7982 N.am    1  UNL1       -0.2808
      8 C         140.4156  138.6793  158.6528 C.2     1  UNL1        0.2300
      9 O         139.6054  137.8206  157.7274 O.2     1  UNL1       -0.2745
     10 C         142.9031  137.5587  156.5751 C.3     1  UNL1        0.0233
     11 C         142.5534  137.3462  158.0182 C.3     1  UNL1        0.0934
     12 C         139.7517  139.7752  159.4328 C.3     1  UNL1        0.1116
     13 C         139.4301  139.5740  160.8841 C.ar    1  UNL1       -0.0130
     14 C         138.9867  138.2275  161.3744 C.ar    1  UNL1       -0.0025
     15 C         138.6651  138.0264  162.8256 C.ar    1  UNL1        0.0180
     16 C         138.7869  139.1718  163.7865 C.ar    1  UNL1        0.1057
     17 C         139.2303  140.5182  163.2962 C.ar    1  UNL1        0.0180
     18 C         139.5519  140.7193  161.8450 C.ar    1  UNL1       -0.0025
     19 S         138.4653  138.9706  165.2378 S.O2    1  UNL1        0.0104
     20 C         138.1436  138.7694  166.6890 C.3     1  UNL1        0.1816
     21 O         138.7866  137.5113  165.1067 O.2     1  UNL1       -0.1686
     22 O         138.1439  140.4299  165.3689 O.2     1  UNL1       -0.1686
     23 C         145.1301  141.8768  162.4998 C.3     1  UNL1        0.0724
     24 C         144.5273  143.1150  163.0942 C.3     1  UNL1        0.0217
     25 C         143.1896  143.0481  163.7696 C.3     1  UNL1        0.0239
     26 C         142.0148  143.7706  163.1799 C.ar    1  UNL1       -0.0194
     27 C         140.7811  143.9937  164.0034 C.ar    1  UNL1        0.0254
     28 C         139.6062  144.7162  163.4137 C.ar    1  UNL1        0.1407
     29 F         138.3725  144.9393  164.2371 F       1  UNL1       -0.2042
     30 C         139.6652  145.2158  162.0005 C.ar    1  UNL1        0.0410
     31 C         140.8990  144.9927  161.1771 C.ar    1  UNL1        0.0596
     32 CL        140.9579  145.4923  159.7639 Cl      1  UNL1       -0.0822
     33 C         142.0737  144.2702  161.7667 C.ar    1  UNL1        0.0073
     34 C         143.0267  142.2587  165.0346 C.3     1  UNL1        0.0070
     35 C         142.4923  140.8581  164.9811 C.3     1  UNL1        0.0195
     36 C         142.3294  140.0687  166.2461 C.3     1  UNL1        0.0954
     37 N         142.7009  140.6799  167.5646 N.3     1  UNL1       -0.1594
     38 C         143.2353  142.0804  167.6182 C.3     1  UNL1        0.0954
     39 C         143.3982  142.8698  166.3531 C.3     1  UNL1        0.0195
     40 S         142.5380  139.8905  168.8296 S.O2    1  UNL1        0.0457
     41 C         142.3750  139.1011  170.0947 C.3     1  UNL1        0.1960
     42 O         143.1709  138.7017  168.1693 O.2     1  UNL1       -0.1572
     43 O         141.9050  141.0792  169.4900 O.2     1  UNL1       -0.1572
@<TRIPOS>BOND
     1    10    11    1
     2    11     7    1
     3     7     8   am
     4     8     9    2
     5     8    12    1
     6    12    13    1
     7    13    14   ar
     8    14    15   ar
     9    15    16   ar
    10    16    19    1
    11    19    20    1
    12    19    21    2
    13    19    22    2
    14    16    17   ar
    15    17    18   ar
    16     7     1    1
    17     1     2    1
    18     2     3    1
    19     3     4    1
    20     4    23    1
    21    23    24    1
    22    25    24    1
    23    25    26    1
    24    26    27   ar
    25    27    28   ar
    26    28    29    1
    27    28    30   ar
    28    30    31   ar
    29    31    32    1
    30    31    33   ar
    31    25    34    1
    32    34    35    1
    33    35    36    1
    34    36    37    1
    35    37    40    1
    36    40    41    1
    37    40    42    2
    38    40    43    2
    39    37    38    1
    40    38    39    1
    41     4     5    1
    42     5     6    1
    43    18    13   ar
    44     6     1    1
    45    33    26   ar
    46    39    34    1
@<TRIPOS>MOLECULE
*****
 43 46 0 0 0
SMALL
GASTEIGER

@<TRIPOS>ATOM
      1 C         140.7353  138.3195  161.0621 C.3     1  UNL1        0.0781
      2 C         139.3847  138.9578  161.1973 C.3     1  UNL1        0.0372
      3 C         138.6247  138.8394  162.4851 C.3     1  UNL1        0.0738
      4 N         139.2154  138.0827  163.6377 N.3     1  UNL1       -0.2726
      5 C         140.5661  137.4443  163.5025 C.3     1  UNL1        0.0738
      6 C         141.3260  137.5627  162.2147 C.3     1  UNL1        0.0372
      7 N         141.4953  138.4379  159.7743 N.am    1  UNL1       -0.2808
      8 C         142.9808  138.6448  159.7964 C.2     1  UNL1        0.2300
      9 O         143.7408  138.7632  158.5086 O.2     1  UNL1       -0.2745
     10 C         140.4694  139.5969  157.6877 C.3     1  UNL1        0.0233
     11 C         140.7698  138.3493  158.4645 C.3     1  UNL1        0.0934
     12 C         143.7063  138.7333  161.1063 C.3     1  UNL1        0.1116
     13 C         143.8036  140.0478  161.8224 C.ar    1  UNL1       -0.0130
     14 C         144.0583  140.0796  163.3003 C.ar    1  UNL1       -0.0025
     15 C         144.1556  141.3940  164.0163 C.ar    1  UNL1        0.0180
     16 C         143.9982  142.6766  163.2546 C.ar    1  UNL1        0.1057
     17 C         143.7436  142.6447  161.7767 C.ar    1  UNL1        0.0180
     18 C         143.6463  141.3303  161.0606 C.ar    1  UNL1       -0.0025
     19 S         144.0956  143.9911  163.9707 S.O2    1  UNL1        0.0104
     20 C         144.1929  145.3055  164.6868 C.3     1  UNL1        0.1816
     21 O         144.1916  144.7017  162.6533 O.2     1  UNL1       -0.1686
     22 O         143.9995  143.2804  165.2882 O.2     1  UNL1       -0.1686
     23 C         138.4554  137.9643  164.9255 C.3     1  UNL1        0.0724
     24 C         138.2567  139.1718  165.7929 C.3     1  UNL1        0.0217
     25 C         139.3642  140.1707  165.9530 C.3     1  UNL1        0.0239
     26 C         140.4584  139.9241  166.9489 C.ar    1  UNL1       -0.0194
     27 C         141.7257  139.2468  166.5184 C.ar    1  UNL1        0.0254
     28 C         142.8200  139.0002  167.5144 C.ar    1  UNL1        0.1407
     29 F         144.0873  138.3230  167.0839 F       1  UNL1       -0.2042
     30 C         142.6469  139.4308  168.9408 C.ar    1  UNL1        0.0410
     31 C         141.3796  140.1081  169.3712 C.ar    1  UNL1        0.0596
     32 CL        141.2066  140.5387  170.7977 Cl      1  UNL1       -0.0822
     33 C         140.2854  140.3547  168.3753 C.ar    1  UNL1        0.0073
     34 C         139.3776  141.4162  165.1173 C.3     1  UNL1        0.0070
     35 C         140.6167  142.2586  165.0463 C.3     1  UNL1        0.0195
     36 C         140.6300  143.5041  164.2106 C.3     1  UNL1        0.0954
     37 N         139.4043  143.9073  163.4458 N.3     1  UNL1       -0.1594
     38 C         138.1652  143.0650  163.5167 C.3     1  UNL1        0.0954
     39 C         138.1518  141.8194  164.3525 C.3     1  UNL1        0.0195
     40 S         139.4176  145.1528  162.6100 S.O2    1  UNL1        0.0457
     41 C         139.4308  146.3983  161.7742 C.3     1  UNL1        0.1960
     42 O         140.8931  145.2921  162.8412 O.2     1  UNL1       -0.1572
     43 O         137.9421  145.0134  162.3788 O.2     1  UNL1       -0.1572
@<TRIPOS>BOND
     1    10    11    1
     2    11     7    1
     3     7     8   am
     4     8     9    2
     5     8    12    1
     6    12    13    1
     7    13    14   ar
     8    14    15   ar
     9    15    16   ar
    10    16    19    1
    11    19    20    1
    12    19    21    2
    13    19    22    2
    14    16    17   ar
    15    17    18   ar
    16     7     1    1
    17     1     2    1
    18     2     3    1
    19     3     4    1
    20     4    23    1
    21    23    24    1
    22    25    24    1
    23    25    26    1
    24    26    27   ar
    25    27    28   ar
    26    28    29    1
    27    28    30   ar
    28    30    31   ar
    29    31    32    1
    30    31    33   ar
    31    25    34    1
    32    34    35    1
    33    35    36    1
    34    36    37    1
    35    37    40    1
    36    40    41    1
    37    40    42    2
    38    40    43    2
    39    37    38    1
    40    38    39    1
    41     4     5    1
    42     5     6    1
    43    18    13   ar
    44     6     1    1
    45    33    26   ar
    46    39    34    1
@<TRIPOS>MOLECULE
*****
 43 46 0 0 0
SMALL
GASTEIGER

@<TRIPOS>ATOM
      1 C         142.7125  140.8699  166.9184 C.3     1  UNL1        0.0781
      2 C         143.0985  142.0469  166.0725 C.3     1  UNL1        0.0372
      3 C         143.8470  141.8354  164.7899 C.3     1  UNL1        0.0738
      4 N         144.2096  140.4470  164.3533 N.3     1  UNL1       -0.2726
      5 C         143.8236  139.2699  165.1992 C.3     1  UNL1        0.0738
      6 C         143.0750  139.4814  166.4818 C.3     1  UNL1        0.0372
      7 N         141.9639  141.0814  168.2010 N.am    1  UNL1       -0.2808
      8 C         140.4639  141.0794  168.2029 C.2     1  UNL1        0.2300
      9 O         139.7153  141.2909  169.4855 O.2     1  UNL1       -0.2745
     10 C         142.8898  140.1601  170.4467 C.3     1  UNL1        0.0233
     11 C         142.7153  141.2949  169.4815 C.3     1  UNL1        0.0934
     12 C         139.7125  140.8660  166.9224 C.3     1  UNL1        0.1116
     13 C         139.7022  141.9362  165.8715 C.ar    1  UNL1       -0.0130
     14 C         139.6756  143.3813  166.2729 C.ar    1  UNL1       -0.0025
     15 C         139.6654  144.4515  165.2219 C.ar    1  UNL1        0.0180
     16 C         139.6816  144.0766  163.7696 C.ar    1  UNL1        0.1057
     17 C         139.7081  142.6316  163.3682 C.ar    1  UNL1        0.0180
     18 C         139.7184  141.5614  164.4191 C.ar    1  UNL1       -0.0025
     19 S         139.6713  145.1469  162.7186 S.O2    1  UNL1        0.0104
     20 C         139.6610  146.2172  161.6677 C.3     1  UNL1        0.1816
     21 O         138.2394  144.8270  162.4069 O.2     1  UNL1       -0.1686
     22 O         141.1032  145.4669  163.0304 O.2     1  UNL1       -0.1686
     23 C         144.9581  140.2355  163.0707 C.3     1  UNL1        0.0724
     24 C         144.2847  139.5627  161.9115 C.3     1  UNL1        0.0217
     25 C         142.9038  139.9803  161.5009 C.3     1  UNL1        0.0239
     26 C         141.7111  139.2175  161.9964 C.ar    1  UNL1       -0.0194
     27 C         141.8809  138.1582  163.0447 C.ar    1  UNL1        0.0254
     28 C         140.6882  137.3953  163.5402 C.ar    1  UNL1        0.1407
     29 F         140.8580  136.3361  164.5886 F       1  UNL1       -0.2042
     30 C         139.3257  137.6917  162.9873 C.ar    1  UNL1        0.0410
     31 C         139.1559  138.7510  161.9389 C.ar    1  UNL1        0.0596
     32 CL        137.7933  139.0474  161.3860 Cl      1  UNL1       -0.0822
     33 C         140.3485  139.5139  161.4434 C.ar    1  UNL1        0.0073
     34 C         142.7155  141.1608  160.5948 C.3     1  UNL1        0.0070
     35 C         142.5512  142.5338  161.1761 C.3     1  UNL1        0.0195
     36 C         142.3629  143.7143  160.2700 C.3     1  UNL1        0.0954
     37 N         142.3389  143.5218  158.7826 N.3     1  UNL1       -0.1594
     38 C         142.5032  142.1488  158.2013 C.3     1  UNL1        0.0954
     39 C         142.6915  140.9683  159.1074 C.3     1  UNL1        0.0195
     40 S         142.1506  144.7022  157.8765 S.O2    1  UNL1        0.0457
     41 C         141.9623  145.8828  156.9704 C.3     1  UNL1        0.1960
     42 O         142.4649  143.8411  156.6893 O.2     1  UNL1       -0.1572
     43 O         141.8364  145.5634  159.0638 O.2     1  UNL1       -0.1572
@<TRIPOS>BOND
     1    10    11    1
     2    11     7    1
     3     7     8   am
     4     8     9    2
     5     8    12    1
     6    12    13    1
     7    13    14   ar
     8    14    15   ar
     9    15    16   ar
    10    16    19    1
    11    19    20    1
    12    19    21    2
    13    19    22    2
    14    16    17   ar
    15    17    18   ar
    16     7     1    1
    17     1     2    1
    18     2     3    1
    19     3     4    1
    20     4    23    1
    21    23    24    1
    22    25    24    1
    23    25    26    1
    24    26    27   ar
    25    27    28   ar
    26    28    29    1
    27    28    30   ar
    28    30    31   ar
    29    31    32    1
    30    31    33   ar
    31    25    34    1
    32    34    35    1
    33    35    36    1
    34    36    37    1
    35    37    40    1
    36    40    41    1
    37    40    42    2
    38    40    43    2
    39    37    38    1
    40    38    39    1
    41     4     5    1
    42     5     6    1
    43    18    13   ar
    44     6     1    1
    45    33    26   ar
    46    39    34    1
@<TRIPOS>MOLECULE
*****
 43 46 0 0 0
SMALL
GASTEIGER

@<TRIPOS>ATOM
      1 C         140.3950  139.7333  167.3041 C.3     1  UNL1        0.0781
      2 C         141.3739  139.2254  166.2873 C.3     1  UNL1        0.0372
      3 C         140.8792  138.5717  165.0311 C.3     1  UNL1        0.0738
      4 N         139.4056  138.4259  164.7917 N.3     1  UNL1       -0.2726
      5 C         138.4267  138.9338  165.8085 C.3     1  UNL1        0.0738
      6 C         138.9214  139.5875  167.0647 C.3     1  UNL1        0.0372
      7 N         140.8897  140.3869  168.5603 N.am    1  UNL1       -0.2808
      8 C         141.0641  141.8759  168.6124 C.2     1  UNL1        0.2300
      9 O         141.5588  142.5295  169.8685 O.2     1  UNL1       -0.2745
     10 C         142.5953  139.0083  169.9532 C.3     1  UNL1        0.0233
     11 C         141.2100  139.5517  169.7643 C.3     1  UNL1        0.0934
     12 C         140.7438  142.7111  167.4083 C.3     1  UNL1        0.1116
     13 C         141.6372  142.6648  166.2042 C.ar    1  UNL1       -0.0130
     14 C         141.0423  142.6913  164.8275 C.ar    1  UNL1       -0.0025
     15 C         141.9356  142.6450  163.6234 C.ar    1  UNL1        0.0180
     16 C         143.4238  142.5721  163.7961 C.ar    1  UNL1        0.1057
     17 C         144.0188  142.5456  165.1728 C.ar    1  UNL1        0.0180
     18 C         143.1254  142.5919  166.3768 C.ar    1  UNL1       -0.0025
     19 S         144.3172  142.5258  162.5919 S.O2    1  UNL1        0.0104
     20 C         145.2105  142.4795  161.3879 C.3     1  UNL1        0.1816
     21 O         145.3400  141.7627  163.3802 O.2     1  UNL1       -0.1686
     22 O         143.2943  143.2889  161.8037 O.2     1  UNL1       -0.1686
     23 C         138.9110  137.7723  163.5355 C.3     1  UNL1        0.0724
     24 C         138.1855  138.5837  162.5034 C.3     1  UNL1        0.0217
     25 C         138.9356  139.5785  161.6682 C.3     1  UNL1        0.0239
     26 C         138.7984  141.0461  161.9460 C.ar    1  UNL1       -0.0194
     27 C         138.0097  141.5142  163.1330 C.ar    1  UNL1        0.0254
     28 C         137.8725  142.9819  163.4108 C.ar    1  UNL1        0.1407
     29 F         137.0838  143.4500  164.5977 F       1  UNL1       -0.2042
     30 C         138.5240  143.9814  162.5017 C.ar    1  UNL1        0.0410
     31 C         139.3127  143.5133  161.3147 C.ar    1  UNL1        0.0596
     32 CL        139.9642  144.5129  160.4056 Cl      1  UNL1       -0.0822
     33 C         139.4499  142.0457  161.0369 C.ar    1  UNL1        0.0073
     34 C         139.8230  139.1057  160.5551 C.3     1  UNL1        0.0070
     35 C         139.2729  138.9618  159.1670 C.3     1  UNL1        0.0195
     36 C         140.1602  138.4890  158.0539 C.3     1  UNL1        0.0954
     37 N         141.5977  138.1601  158.3288 N.3     1  UNL1       -0.1594
     38 C         142.1478  138.3039  159.7169 C.3     1  UNL1        0.0954
     39 C         141.2604  138.7768  160.8300 C.3     1  UNL1        0.0195
     40 S         142.4850  137.6873  157.2157 S.O2    1  UNL1        0.0457
     41 C         143.3725  137.2145  156.1026 C.3     1  UNL1        0.1960
     42 O         141.4162  136.7349  156.7682 O.2     1  UNL1       -0.1572
     43 O         143.5539  138.6397  157.6633 O.2     1  UNL1       -0.1572
@<TRIPOS>BOND
     1    10    11    1
     2    11     7    1
     3     7     8   am
     4     8     9    2
     5     8    12    1
     6    12    13    1
     7    13    14   ar
     8    14    15   ar
     9    15    16   ar
    10    16    19    1
    11    19    20    1
    12    19    21    2
    13    19    22    2
    14    16    17   ar
    15    17    18   ar
    16     7     1    1
    17     1     2    1
    18     2     3    1
    19     3     4    1
    20     4    23    1
    21    23    24    1
    22    25    24    1
    23    25    26    1
    24    26    27   ar
    25    27    28   ar
    26    28    29    1
    27    28    30   ar
    28    30    31   ar
    29    31    32    1
    30    31    33   ar
    31    25    34    1
    32    34    35    1
    33    35    36    1
    34    36    37    1
    35    37    40    1
    36    40    41    1
    37    40    42    2
    38    40    43    2
    39    37    38    1
    40    38    39    1
    41     4     5    1
    42     5     6    1
    43    18    13   ar
    44     6     1    1
    45    33    26   ar
    46    39    34    1
@<TRIPOS>MOLECULE
*****
 43 46 0 0 0
SMALL
GASTEIGER

@<TRIPOS>ATOM
      1 C         142.6008  140.4561  166.7443 C.3     1  UNL1        0.0781
      2 C         142.6501  138.9903  166.4300 C.3     1  UNL1        0.0372
      3 C         143.2308  138.5214  165.1288 C.3     1  UNL1        0.0738
      4 N         143.7621  139.5183  164.1420 N.3     1  UNL1       -0.2726
      5 C         143.7127  140.9842  164.4563 C.3     1  UNL1        0.0738
      6 C         143.1320  141.4531  165.7575 C.3     1  UNL1        0.0372
      7 N         142.0201  140.9250  168.0455 N.am    1  UNL1       -0.2808
      8 C         140.5502  141.2043  168.1535 C.2     1  UNL1        0.2300
      9 O         139.9696  141.6732  169.4546 O.2     1  UNL1       -0.2745
     10 C         143.6518  142.4047  169.4230 C.3     1  UNL1        0.0233
     11 C         142.9092  141.1146  169.2385 C.3     1  UNL1        0.0934
     12 C         139.6611  141.0147  166.9604 C.3     1  UNL1        0.1116
     13 C         139.7009  142.0012  165.8310 C.ar    1  UNL1       -0.0130
     14 C         139.7333  141.5159  164.4121 C.ar    1  UNL1       -0.0025
     15 C         139.7730  142.5024  163.2829 C.ar    1  UNL1        0.0180
     16 C         139.7804  143.9741  163.5725 C.ar    1  UNL1        0.1057
     17 C         139.7481  144.4594  164.9915 C.ar    1  UNL1        0.0180
     18 C         139.7083  143.4729  166.1207 C.ar    1  UNL1       -0.0025
     19 S         139.8202  144.9606  162.4432 S.O2    1  UNL1        0.0104
     20 C         139.8600  145.9470  161.3139 C.3     1  UNL1        0.1816
     21 O         141.3139  145.0327  162.5588 O.2     1  UNL1       -0.1686
     22 O         138.3264  144.8885  162.3276 O.2     1  UNL1       -0.1686
     23 C         144.3427  139.0494  162.8409 C.3     1  UNL1        0.0724
     24 C         143.6280  138.0072  162.0329 C.3     1  UNL1        0.0217
     25 C         142.5791  138.4158  161.0414 C.3     1  UNL1        0.0239
     26 C         141.1504  138.5564  161.4761 C.ar    1  UNL1       -0.0194
     27 C         140.6581  137.8176  162.6851 C.ar    1  UNL1        0.0254
     28 C         139.2293  137.9583  163.1198 C.ar    1  UNL1        0.1407
     29 F         138.7370  137.2195  164.3288 F       1  UNL1       -0.2042
     30 C         138.2929  138.8377  162.3454 C.ar    1  UNL1        0.0410
     31 C         138.7852  139.5765  161.1363 C.ar    1  UNL1        0.0596
     32 CL        137.8487  140.4559  160.3619 Cl      1  UNL1       -0.0822
     33 C         140.2139  139.4359  160.7016 C.ar    1  UNL1        0.0073
     34 C         142.9590  138.6837  159.6153 C.3     1  UNL1        0.0070
     35 C         143.7002  139.9384  159.2596 C.3     1  UNL1        0.0195
     36 C         144.0800  140.2064  157.8334 C.3     1  UNL1        0.0954
     37 N         143.7188  139.2197  156.7630 N.3     1  UNL1       -0.1594
     38 C         142.9776  137.9650  157.1186 C.3     1  UNL1        0.0954
     39 C         142.5977  137.6970  158.5448 C.3     1  UNL1        0.0195
     40 S         144.0986  139.4876  155.3369 S.O2    1  UNL1        0.0457
     41 C         144.4784  139.7555  153.9106 C.3     1  UNL1        0.1960
     42 O         145.5465  139.5154  155.7277 O.2     1  UNL1       -0.1572
     43 O         142.6507  139.4598  154.9460 O.2     1  UNL1       -0.1572
@<TRIPOS>BOND
     1    10    11    1
     2    11     7    1
     3     7     8   am
     4     8     9    2
     5     8    12    1
     6    12    13    1
     7    13    14   ar
     8    14    15   ar
     9    15    16   ar
    10    16    19    1
    11    19    20    1
    12    19    21    2
    13    19    22    2
    14    16    17   ar
    15    17    18   ar
    16     7     1    1
    17     1     2    1
    18     2     3    1
    19     3     4    1
    20     4    23    1
    21    23    24    1
    22    25    24    1
    23    25    26    1
    24    26    27   ar
    25    27    28   ar
    26    28    29    1
    27    28    30   ar
    28    30    31   ar
    29    31    32    1
    30    31    33   ar
    31    25    34    1
    32    34    35    1
    33    35    36    1
    34    36    37    1
    35    37    40    1
    36    40    41    1
    37    40    42    2
    38    40    43    2
    39    37    38    1
    40    38    39    1
    41     4     5    1
    42     5     6    1
    43    18    13   ar
    44     6     1    1
    45    33    26   ar
    46    39    34    1
@<TRIPOS>MOLECULE
*****
 43 46 0 0 0
SMALL
GASTEIGER

@<TRIPOS>ATOM
      1 C         141.4286  138.5296  160.1512 C.3     1  UNL1        0.0781
      2 C         139.9307  138.4594  160.1854 C.3     1  UNL1        0.0372
      3 C         139.2234  138.1539  161.4725 C.3     1  UNL1        0.0738
      4 N         140.0141  137.9187  162.7252 N.3     1  UNL1       -0.2726
      5 C         141.5121  137.9890  162.6910 C.3     1  UNL1        0.0738
      6 C         142.2194  138.2944  161.4040 C.3     1  UNL1        0.0372
      7 N         142.1359  138.8351  158.8641 N.am    1  UNL1       -0.2808
      8 C         142.2110  140.2483  158.3667 C.2     1  UNL1        0.2300
      9 O         142.9183  140.5538  157.0797 O.2     1  UNL1       -0.2745
     10 C         142.0070  137.0717  156.9607 C.3     1  UNL1        0.0233
     11 C         142.7680  137.7275  158.0745 C.3     1  UNL1        0.0934
     12 C         141.5789  141.3559  159.1564 C.3     1  UNL1        0.1116
     13 C         142.2227  141.8358  160.4234 C.ar    1  UNL1       -0.0130
     14 C         143.6577  142.2724  160.4168 C.ar    1  UNL1       -0.0025
     15 C         144.3015  142.7522  161.6838 C.ar    1  UNL1        0.0180
     16 C         143.5102  142.7955  162.9574 C.ar    1  UNL1        0.1057
     17 C         142.0752  142.3589  162.9640 C.ar    1  UNL1        0.0180
     18 C         141.4315  141.8790  161.6970 C.ar    1  UNL1       -0.0025
     19 S         144.1540  143.2753  164.2244 S.O2    1  UNL1        0.0104
     20 C         144.7978  143.7552  165.4914 C.3     1  UNL1        0.1816
     21 O         143.1968  144.4291  164.2738 O.2     1  UNL1       -0.1686
     22 O         145.1112  142.1215  164.1751 O.2     1  UNL1       -0.1686
     23 C         139.3069  137.6132  164.0123 C.3     1  UNL1        0.0724
     24 C         138.4277  138.6484  164.6490 C.3     1  UNL1        0.0217
     25 C         139.0239  139.9250  165.1635 C.3     1  UNL1        0.0239
     26 C         138.7256  141.2234  164.4742 C.ar    1  UNL1       -0.0194
     27 C         138.3024  141.2286  163.0352 C.ar    1  UNL1        0.0254
     28 C         138.0041  142.5271  162.3459 C.ar    1  UNL1        0.1407
     29 F         137.5809  142.5324  160.9068 F       1  UNL1       -0.2042
     30 C         138.1291  143.8203  163.0956 C.ar    1  UNL1        0.0410
     31 C         138.5523  143.8150  164.5347 C.ar    1  UNL1        0.0596
     32 CL        138.6772  145.1082  165.2844 Cl      1  UNL1       -0.0822
     33 C         138.8506  142.5166  165.2240 C.ar    1  UNL1        0.0073
     34 C         139.9184  139.9033  166.3674 C.3     1  UNL1        0.0070
     35 C         139.3246  139.9530  167.7440 C.3     1  UNL1        0.0195
     36 C         140.2191  139.9313  168.9479 C.3     1  UNL1        0.0954
     37 N         141.7074  139.8597  168.7753 N.3     1  UNL1       -0.1594
     38 C         142.3012  139.8100  167.3987 C.3     1  UNL1        0.0954
     39 C         141.4067  139.8317  166.1948 C.3     1  UNL1        0.0195
     40 S         142.6019  139.8380  169.9791 S.O2    1  UNL1        0.0457
     41 C         143.4964  139.8162  171.1831 C.3     1  UNL1        0.1960
     42 O         142.2000  141.2463  170.3032 O.2     1  UNL1       -0.1572
     43 O         143.0037  138.4297  169.6551 O.2     1  UNL1       -0.1572
@<TRIPOS>BOND
     1    10    11    1
     2    11     7    1
     3     7     8   am
     4     8     9    2
     5     8    12    1
     6    12    13    1
     7    13    14   ar
     8    14    15   ar
     9    15    16   ar
    10    16    19    1
    11    19    20    1
    12    19    21    2
    13    19    22    2
    14    16    17   ar
    15    17    18   ar
    16     7     1    1
    17     1     2    1
    18     2     3    1
    19     3     4    1
    20     4    23    1
    21    23    24    1
    22    25    24    1
    23    25    26    1
    24    26    27   ar
    25    27    28   ar
    26    28    29    1
    27    28    30   ar
    28    30    31   ar
    29    31    32    1
    30    31    33   ar
    31    25    34    1
    32    34    35    1
    33    35    36    1
    34    36    37    1
    35    37    40    1
    36    40    41    1
    37    40    42    2
    38    40    43    2
    39    37    38    1
    40    38    39    1
    41     4     5    1
    42     5     6    1
    43    18    13   ar
    44     6     1    1
    45    33    26   ar
    46    39    34    1
@<TRIPOS>MOLECULE
*****
 43 46 0 0 0
SMALL
GASTEIGER

@<TRIPOS>ATOM
      1 C         141.9227  138.3408  160.3112 C.3     1  UNL1        0.0781
      2 C         140.4280  138.4467  160.2440 C.3     1  UNL1        0.0372
      3 C         139.5997  138.1494  161.4587 C.3     1  UNL1        0.0738
      4 N         140.2661  137.7462  162.7406 N.3     1  UNL1       -0.2726
      5 C         141.7609  137.6403  162.8078 C.3     1  UNL1        0.0738
      6 C         142.5892  137.9376  161.5931 C.3     1  UNL1        0.0372
      7 N         142.7510  138.6380  159.0965 N.am    1  UNL1       -0.2808
      8 C         143.7521  139.7548  159.1263 C.2     1  UNL1        0.2300
      9 O         144.5805  140.0520  157.9116 O.2     1  UNL1       -0.2745
     10 C         141.3449  137.9793  157.0136 C.3     1  UNL1        0.0233
     11 C         142.5783  137.8187  157.8520 C.3     1  UNL1        0.0934
     12 C         143.9249  140.5741  160.3707 C.3     1  UNL1        0.1116
     13 C         143.0527  141.7714  160.6076 C.ar    1  UNL1       -0.0130
     14 C         142.5296  142.0577  161.9839 C.ar    1  UNL1       -0.0025
     15 C         141.6575  143.2549  162.2207 C.ar    1  UNL1        0.0180
     16 C         141.3084  144.1657  161.0811 C.ar    1  UNL1        0.1057
     17 C         141.8315  143.8793  159.7048 C.ar    1  UNL1        0.0180
     18 C         142.7037  142.6822  159.4680 C.ar    1  UNL1       -0.0025
     19 S         140.4363  145.3629  161.3179 S.O2    1  UNL1        0.0104
     20 C         139.5641  146.5601  161.5548 C.3     1  UNL1        0.1816
     21 O         140.9461  145.4559  162.7255 O.2     1  UNL1       -0.1686
     22 O         139.9264  145.2700  159.9103 O.2     1  UNL1       -0.1686
     23 C         139.4378  137.4490  163.9553 C.3     1  UNL1        0.0724
     24 C         138.4784  138.4764  164.4787 C.3     1  UNL1        0.0217
     25 C         138.9881  139.8037  164.9568 C.3     1  UNL1        0.0239
     26 C         138.6004  141.0601  164.2350 C.ar    1  UNL1       -0.0194
     27 C         138.2576  142.2963  165.0124 C.ar    1  UNL1        0.0254
     28 C         137.8698  143.5528  164.2905 C.ar    1  UNL1        0.1407
     29 F         137.5270  144.7890  165.0679 F       1  UNL1       -0.2042
     30 C         137.8249  143.5730  162.7913 C.ar    1  UNL1        0.0410
     31 C         138.1677  142.3368  162.0140 C.ar    1  UNL1        0.0596
     32 CL        138.1227  142.3571  160.5147 Cl      1  UNL1       -0.0822
     33 C         138.5554  141.0804  162.7357 C.ar    1  UNL1        0.0073
     34 C         139.8854  139.8746  166.1566 C.3     1  UNL1        0.0070
     35 C         141.3713  139.9745  165.9771 C.3     1  UNL1        0.0195
     36 C         142.2687  140.0453  167.1769 C.3     1  UNL1        0.0954
     37 N         141.6802  140.0163  168.5564 N.3     1  UNL1       -0.1594
     38 C         140.1944  139.9164  168.7360 C.3     1  UNL1        0.0954
     39 C         139.2970  139.8455  167.5361 C.3     1  UNL1        0.0195
     40 S         142.5776  140.0872  169.7562 S.O2    1  UNL1        0.0457
     41 C         143.4750  140.1580  170.9561 C.3     1  UNL1        0.1960
     42 O         142.5626  141.5851  169.6789 O.2     1  UNL1       -0.1572
     43 O         142.5925  138.5893  169.8335 O.2     1  UNL1       -0.1572
@<TRIPOS>BOND
     1    10    11    1
     2    11     7    1
     3     7     8   am
     4     8     9    2
     5     8    12    1
     6    12    13    1
     7    13    14   ar
     8    14    15   ar
     9    15    16   ar
    10    16    19    1
    11    19    20    1
    12    19    21    2
    13    19    22    2
    14    16    17   ar
    15    17    18   ar
    16     7     1    1
    17     1     2    1
    18     2     3    1
    19     3     4    1
    20     4    23    1
    21    23    24    1
    22    25    24    1
    23    25    26    1
    24    26    27   ar
    25    27    28   ar
    26    28    29    1
    27    28    30   ar
    28    30    31   ar
    29    31    32    1
    30    31    33   ar
    31    25    34    1
    32    34    35    1
    33    35    36    1
    34    36    37    1
    35    37    40    1
    36    40    41    1
    37    40    42    2
    38    40    43    2
    39    37    38    1
    40    38    39    1
    41     4     5    1
    42     5     6    1
    43    18    13   ar
    44     6     1    1
    45    33    26   ar
    46    39    34    1
@<TRIPOS>MOLECULE
*****
 43 46 0 0 0
SMALL
GASTEIGER

@<TRIPOS>ATOM
      1 C         144.1076  140.6322  161.5285 C.3     1  UNL1        0.0781
      2 C         143.4021  139.3299  161.7656 C.3     1  UNL1        0.0372
      3 C         143.4854  138.6653  163.1077 C.3     1  UNL1        0.0738
      4 N         144.2742  139.3029  164.2128 N.3     1  UNL1       -0.2726
      5 C         144.9798  140.6052  163.9757 C.3     1  UNL1        0.0738
      6 C         144.8965  141.2699  162.6335 C.3     1  UNL1        0.0372
      7 N         144.0242  141.2968  160.1864 N.am    1  UNL1       -0.2808
      8 C         143.8800  142.7872  160.0951 C.2     1  UNL1        0.2300
      9 O         143.7967  143.4518  158.7530 O.2     1  UNL1       -0.2745
     10 C         142.8224  140.1220  158.2052 C.3     1  UNL1        0.0233
     11 C         144.0852  140.4713  158.9355 C.3     1  UNL1        0.0934
     12 C         143.8191  143.6127  161.3460 C.3     1  UNL1        0.1116
     13 C         142.5126  143.7986  162.0591 C.ar    1  UNL1       -0.0130
     14 C         141.2253  143.7519  161.2905 C.ar    1  UNL1       -0.0025
     15 C         139.9189  143.9378  162.0036 C.ar    1  UNL1        0.0180
     16 C         139.8997  144.1704  163.4853 C.ar    1  UNL1        0.1057
     17 C         141.1869  144.2170  164.2540 C.ar    1  UNL1        0.0180
     18 C         142.4933  144.0312  163.5408 C.ar    1  UNL1       -0.0025
     19 S         138.5931  144.3562  164.1985 S.O2    1  UNL1        0.0104
     20 C         137.2867  144.5421  164.9116 C.3     1  UNL1        0.1816
     21 O         139.2687  144.0785  165.5085 O.2     1  UNL1       -0.1686
     22 O         137.9175  144.6340  162.8884 O.2     1  UNL1       -0.1686
     23 C         144.3575  138.6383  165.5549 C.3     1  UNL1        0.0724
     24 C         143.1031  138.2295  166.2686 C.3     1  UNL1        0.0217
     25 C         141.9381  139.1719  166.3369 C.3     1  UNL1        0.0239
     26 C         141.7503  140.0461  167.5413 C.ar    1  UNL1       -0.0194
     27 C         140.4001  140.1552  168.1856 C.ar    1  UNL1        0.0254
     28 C         140.2123  141.0295  169.3900 C.ar    1  UNL1        0.1407
     29 F         138.8622  141.1386  170.0343 F       1  UNL1       -0.2042
     30 C         141.3746  141.7946  169.9500 C.ar    1  UNL1        0.0410
     31 C         142.7248  141.6855  169.3056 C.ar    1  UNL1        0.0596
     32 CL        143.8871  142.4506  169.8657 Cl      1  UNL1       -0.0822
     33 C         142.9126  140.8113  168.1013 C.ar    1  UNL1        0.0073
     34 C         140.9610  139.2401  165.2010 C.3     1  UNL1        0.0070
     35 C         140.1730  138.0233  164.8154 C.3     1  UNL1        0.0195
     36 C         139.1958  138.0915  163.6794 C.3     1  UNL1        0.0954
     37 N         139.0066  139.3764  162.9290 N.3     1  UNL1       -0.1594
     38 C         139.7945  140.5932  163.3145 C.3     1  UNL1        0.0954
     39 C         140.7717  140.5250  164.4505 C.3     1  UNL1        0.0195
     40 S         138.0294  139.4446  161.7930 S.O2    1  UNL1        0.0457
     41 C         137.0522  139.5128  160.6570 C.3     1  UNL1        0.1960
     42 O         137.9999  137.9463  161.7285 O.2     1  UNL1       -0.1572
     43 O         138.0590  140.9429  161.8576 O.2     1  UNL1       -0.1572
@<TRIPOS>BOND
     1    10    11    1
     2    11     7    1
     3     7     8   am
     4     8     9    2
     5     8    12    1
     6    12    13    1
     7    13    14   ar
     8    14    15   ar
     9    15    16   ar
    10    16    19    1
    11    19    20    1
    12    19    21    2
    13    19    22    2
    14    16    17   ar
    15    17    18   ar
    16     7     1    1
    17     1     2    1
    18     2     3    1
    19     3     4    1
    20     4    23    1
    21    23    24    1
    22    25    24    1
    23    25    26    1
    24    26    27   ar
    25    27    28   ar
    26    28    29    1
    27    28    30   ar
    28    30    31   ar
    29    31    32    1
    30    31    33   ar
    31    25    34    1
    32    34    35    1
    33    35    36    1
    34    36    37    1
    35    37    40    1
    36    40    41    1
    37    40    42    2
    38    40    43    2
    39    37    38    1
    40    38    39    1
    41     4     5    1
    42     5     6    1
    43    18    13   ar
    44     6     1    1
    45    33    26   ar
    46    39    34    1
