@<TRIPOS>MOLECULE
*****
 37 40 0 0 0
SMALL
GASTEIGER

@<TRIPOS>ATOM
      1 C         142.8095  141.6854  161.2820 C.3     1  UNL1        0.1171
      2 N         142.1089  142.0700  162.5513 N.am    1  UNL1       -0.2557
      3 C         142.3882  141.5493  163.9300 C.2     1  UNL1        0.3150
      4 O         143.4699  140.5321  164.1427 O.2     1  UNL1       -0.2516
      5 N         141.5858  142.0458  165.0960 N.am    1  UNL1       -0.2256
      6 C         140.5041  143.0629  164.8834 C.2     1  UNL1        0.0380
      7 C         140.2247  143.5837  163.5046 C.2     1  UNL1        0.0447
      8 C         139.1039  144.5757  163.6020 C.2     1  UNL1        0.1723
      9 O         138.5021  145.3409  162.4609 O.2     1  UNL1       -0.2916
     10 C         138.6905  144.6681  165.0410 C.3     1  UNL1        0.0749
     11 C         139.5558  143.7332  165.8329 C.3     1  UNL1        0.0498
     12 C         141.0271  143.0872  162.3386 C.3     1  UNL1        0.1269
     13 C         141.8651  141.5251  166.4747 C.ar    1  UNL1        0.0592
     14 C         141.6480  140.0741  166.7867 C.ar    1  UNL1        0.0153
     15 C         141.9273  139.5534  168.1655 C.ar    1  UNL1        0.0012
     16 C         142.4239  140.4838  169.2322 C.ar    1  UNL1        0.0039
     17 C         142.6410  141.9348  168.9202 C.ar    1  UNL1        0.0727
     18 C         142.3617  142.4555  167.5415 C.ar    1  UNL1        0.0191
     19 C         143.1375  142.8652  169.9869 C.3     1  UNL1        0.4186
     20 F         143.6341  143.7955  171.0536 F       1  UNL1       -0.1659
     21 F         141.8186  143.5795  169.9778 F       1  UNL1       -0.1659
     22 F         144.4565  142.1508  169.9960 F       1  UNL1       -0.1659
     23 C         140.7478  143.6078  160.9598 C.ar    1  UNL1        0.0172
     24 C         141.5228  144.7771  160.4285 C.ar    1  UNL1       -0.0004
     25 C         141.2436  145.2978  159.0498 C.ar    1  UNL1        0.0101
     26 C         140.1894  144.6492  158.2024 C.ar    1  UNL1        0.0697
     27 C         139.4145  143.4800  158.7337 C.ar    1  UNL1        0.0284
     28 C         139.6937  142.9592  160.1125 C.ar    1  UNL1        0.1043
     29 S         138.9188  141.7900  160.6438 S.O2    1  UNL1        0.0110
     30 O         137.9154  142.8487  160.9938 O.2     1  UNL1       -0.1686
     31 O         140.0248  140.8670  160.2258 O.2     1  UNL1       -0.1686
     32 C         138.1438  140.6207  161.1751 C.3     1  UNL1        0.1875
     33 C         137.8014  140.5484  162.6337 C.3     1  UNL1        0.1629
     34 O         136.6378  141.3282  163.1704 O.3     1  UNL1       -0.3801
     35 H         136.8219  142.2775  163.0938 H       1  UNL1        0.2105
     36 C         139.9102  145.1699  156.8237 C.1     1  UNL1        0.1005
     37 N         139.6309  145.6906  155.4449 N.1     1  UNL1       -0.1908
@<TRIPOS>BOND
     1     1     2    1
     2     2     3   am
     3     3     4    2
     4     3     5   am
     5     5    13    1
     6    13    14   ar
     7    14    15   ar
     8    15    16   ar
     9    16    17   ar
    10    17    19    1
    11    19    20    1
    12    19    21    1
    13    19    22    1
    14    17    18   ar
    15     5     6    1
    16     6     7    2
    17     7     8    1
    18     8     9    2
    19     8    10    1
    20    10    11    1
    21     7    12    1
    22    12    23    1
    23    23    24   ar
    24    24    25   ar
    25    25    26   ar
    26    26    36    1
    27    36    37    3
    28    26    27   ar
    29    27    28   ar
    30    28    29    1
    31    29    30    2
    32    29    31    2
    33    29    32    1
    34    32    33    1
    35    33    34    1
    36    12     2    1
    37    28    23   ar
    38    18    13   ar
    39    11     6    1
    40    34    35    1
@<TRIPOS>MOLECULE
*****
 37 40 0 0 0
SMALL
GASTEIGER

@<TRIPOS>ATOM
      1 C         142.5826  141.5125  161.4073 C.3     1  UNL1        0.1171
      2 N         141.8538  142.0179  162.6171 N.am    1  UNL1       -0.2557
      3 C         142.0251  141.5543  164.0333 C.2     1  UNL1        0.3150
      4 O         143.0129  140.4718  164.3539 O.2     1  UNL1       -0.2516
      5 N         141.2088  142.1731  165.1290 N.am    1  UNL1       -0.2256
      6 C         140.2210  143.2555  164.8085 C.2     1  UNL1        0.0380
      7 C         140.0497  143.7191  163.3923 C.2     1  UNL1        0.0447
      8 C         139.0061  144.7965  163.3803 C.2     1  UNL1        0.1723
      9 O         138.5213  145.5410  162.1717 O.2     1  UNL1       -0.2916
     10 C         138.5325  144.9988  164.7891 C.3     1  UNL1        0.0749
     11 C         139.2834  144.0463  165.6718 C.3     1  UNL1        0.0498
     12 C         140.8660  143.1003  162.2966 C.3     1  UNL1        0.1269
     13 C         141.3801  141.7094  166.5452 C.ar    1  UNL1        0.0592
     14 C         142.7396  141.7213  167.1790 C.ar    1  UNL1        0.0153
     15 C         142.9109  141.2576  168.5953 C.ar    1  UNL1        0.0012
     16 C         141.7228  140.7821  169.3777 C.ar    1  UNL1        0.0039
     17 C         140.3633  140.7702  168.7439 C.ar    1  UNL1        0.0727
     18 C         140.1919  141.2339  167.3277 C.ar    1  UNL1        0.0191
     19 C         139.1752  140.2947  169.5263 C.3     1  UNL1        0.4186
     20 F         137.9870  139.8192  170.3088 F       1  UNL1       -0.1659
     21 F         138.6493  139.5997  168.3055 F       1  UNL1       -0.1659
     22 F         139.7010  140.9898  170.7471 F       1  UNL1       -0.1659
     23 C         140.6947  143.5639  160.8803 C.ar    1  UNL1        0.0172
     24 C         141.5378  144.6862  160.3514 C.ar    1  UNL1       -0.0004
     25 C         141.3666  145.1499  158.9352 C.ar    1  UNL1        0.0101
     26 C         140.3523  144.4912  158.0479 C.ar    1  UNL1        0.0697
     27 C         139.5092  143.3689  158.5768 C.ar    1  UNL1        0.0284
     28 C         139.6805  142.9053  159.9930 C.ar    1  UNL1        0.1043
     29 S         138.8374  141.7830  160.5219 S.O2    1  UNL1        0.0110
     30 O         137.8967  142.8982  160.8701 O.2     1  UNL1       -0.1686
     31 O         139.8888  140.7972  160.1061 O.2     1  UNL1       -0.1686
     32 C         137.9944  140.6607  161.0508 C.3     1  UNL1        0.1875
     33 C         137.7231  140.5555  162.5223 C.3     1  UNL1        0.1629
     34 O         136.6350  141.3792  163.1450 O.3     1  UNL1       -0.3801
     35 H         136.8691  142.3190  163.0898 H       1  UNL1        0.2105
     36 C         140.1810  144.9549  156.6317 C.1     1  UNL1        0.1005
     37 N         140.0097  145.4184  155.2154 N.1     1  UNL1       -0.1908
@<TRIPOS>BOND
     1     1     2    1
     2     2     3   am
     3     3     4    2
     4     3     5   am
     5     5    13    1
     6    13    14   ar
     7    14    15   ar
     8    15    16   ar
     9    16    17   ar
    10    17    19    1
    11    19    20    1
    12    19    21    1
    13    19    22    1
    14    17    18   ar
    15     5     6    1
    16     6     7    2
    17     7     8    1
    18     8     9    2
    19     8    10    1
    20    10    11    1
    21     7    12    1
    22    12    23    1
    23    23    24   ar
    24    24    25   ar
    25    25    26   ar
    26    26    36    1
    27    36    37    3
    28    26    27   ar
    29    27    28   ar
    30    28    29    1
    31    29    30    2
    32    29    31    2
    33    29    32    1
    34    32    33    1
    35    33    34    1
    36    12     2    1
    37    28    23   ar
    38    18    13   ar
    39    11     6    1
    40    34    35    1
@<TRIPOS>MOLECULE
*****
 37 40 0 0 0
SMALL
GASTEIGER

@<TRIPOS>ATOM
      1 C         140.0686  140.9358  161.6327 C.3     1  UNL1        0.1171
      2 N         140.8889  141.3125  162.8307 N.am    1  UNL1       -0.2557
      3 C         140.7970  140.7263  164.2083 C.2     1  UNL1        0.3150
      4 O         139.8014  139.6420  164.4971 O.2     1  UNL1       -0.2516
      5 N         141.7005  141.2243  165.2971 N.am    1  UNL1       -0.2256
      6 C         142.6960  142.3085  165.0084 C.2     1  UNL1        0.0380
      7 C         142.7880  142.8947  163.6307 C.2     1  UNL1        0.0447
      8 C         143.8592  143.9447  163.6443 C.2     1  UNL1        0.1723
      9 O         144.2855  144.7845  162.4768 O.2     1  UNL1       -0.2916
     10 C         144.4293  144.0073  165.0303 C.3     1  UNL1        0.0749
     11 C         143.7104  142.9961  165.8734 C.3     1  UNL1        0.0498
     12 C         141.8845  142.3968  162.5419 C.3     1  UNL1        0.1269
     13 C         141.6085  140.6380  166.6748 C.ar    1  UNL1        0.0592
     14 C         142.7532  139.8430  167.2295 C.ar    1  UNL1        0.0153
     15 C         142.6611  139.2568  168.6072 C.ar    1  UNL1        0.0012
     16 C         141.4245  139.4655  169.4300 C.ar    1  UNL1        0.0039
     17 C         140.2798  140.2606  168.8752 C.ar    1  UNL1        0.0727
     18 C         140.3718  140.8468  167.4977 C.ar    1  UNL1        0.0191
     19 C         139.0432  140.4693  169.6981 C.3     1  UNL1        0.4186
     20 F         137.8066  140.6781  170.5210 F       1  UNL1       -0.1659
     21 F         138.2895  139.5304  168.8036 F       1  UNL1       -0.1659
     22 F         139.7969  141.4083  170.5926 F       1  UNL1       -0.1659
     23 C         141.9764  142.9830  161.1642 C.ar    1  UNL1        0.0172
     24 C         142.9780  142.4452  160.1856 C.ar    1  UNL1       -0.0004
     25 C         143.0700  143.0313  158.8080 C.ar    1  UNL1        0.0101
     26 C         142.1603  144.1552  158.4089 C.ar    1  UNL1        0.0697
     27 C         141.1587  144.6930  159.3874 C.ar    1  UNL1        0.0284
     28 C         141.0667  144.1069  160.7651 C.ar    1  UNL1        0.1043
     29 S         140.0651  144.6447  161.7436 S.O2    1  UNL1        0.0110
     30 O         139.1202  143.7656  160.9792 O.2     1  UNL1       -0.1686
     31 O         141.1402  145.4643  162.3936 O.2     1  UNL1       -0.1686
     32 C         139.0635  145.1825  162.7222 C.3     1  UNL1        0.1875
     33 C         137.8398  144.3829  163.0587 C.3     1  UNL1        0.1629
     34 O         137.9791  143.0191  163.6678 O.3     1  UNL1       -0.3801
     35 H         138.3937  142.4199  163.0275 H       1  UNL1        0.2105
     36 C         142.2523  144.7414  157.0312 C.1     1  UNL1        0.1005
     37 N         142.3442  145.3276  155.6535 N.1     1  UNL1       -0.1908
@<TRIPOS>BOND
     1     1     2    1
     2     2     3   am
     3     3     4    2
     4     3     5   am
     5     5    13    1
     6    13    14   ar
     7    14    15   ar
     8    15    16   ar
     9    16    17   ar
    10    17    19    1
    11    19    20    1
    12    19    21    1
    13    19    22    1
    14    17    18   ar
    15     5     6    1
    16     6     7    2
    17     7     8    1
    18     8     9    2
    19     8    10    1
    20    10    11    1
    21     7    12    1
    22    12    23    1
    23    23    24   ar
    24    24    25   ar
    25    25    26   ar
    26    26    36    1
    27    36    37    3
    28    26    27   ar
    29    27    28   ar
    30    28    29    1
    31    29    30    2
    32    29    31    2
    33    29    32    1
    34    32    33    1
    35    33    34    1
    36    12     2    1
    37    28    23   ar
    38    18    13   ar
    39    11     6    1
    40    34    35    1
@<TRIPOS>MOLECULE
*****
 37 40 0 0 0
SMALL
GASTEIGER

@<TRIPOS>ATOM
      1 C         138.9537  140.8084  162.6725 C.3     1  UNL1        0.1171
      2 N         140.2193  141.1679  163.3930 N.am    1  UNL1       -0.2557
      3 C         140.5674  140.8536  164.8177 C.2     1  UNL1        0.3150
      4 O         139.5963  140.1014  165.6787 O.2     1  UNL1       -0.2516
      5 N         141.8866  141.2915  165.3816 N.am    1  UNL1       -0.2256
      6 C         142.8577  142.0437  164.5207 C.2     1  UNL1        0.0380
      7 C         142.5096  142.3580  163.0959 C.2     1  UNL1        0.0447
      8 C         143.6596  143.1086  162.4924 C.2     1  UNL1        0.1723
      9 O         143.7371  143.6198  161.0844 O.2     1  UNL1       -0.2916
     10 C         144.7184  143.2581  163.5443 C.3     1  UNL1        0.0749
     11 C         144.2229  142.6000  164.7978 C.3     1  UNL1        0.0498
     12 C         141.1904  141.9201  162.5320 C.3     1  UNL1        0.1269
     13 C         142.2347  140.9772  166.8064 C.ar    1  UNL1        0.0592
     14 C         142.2519  139.5533  167.2777 C.ar    1  UNL1        0.0153
     15 C         142.6000  139.2390  168.7025 C.ar    1  UNL1        0.0012
     16 C         142.9309  140.3487  169.6560 C.ar    1  UNL1        0.0039
     17 C         142.9137  141.7726  169.1847 C.ar    1  UNL1        0.0727
     18 C         142.5656  142.0869  167.7599 C.ar    1  UNL1        0.0191
     19 C         143.2447  142.8823  170.1382 C.3     1  UNL1        0.4186
     20 F         143.5756  143.9919  171.0917 F       1  UNL1       -0.1659
     21 F         141.7918  143.2465  170.2186 F       1  UNL1       -0.1659
     22 F         144.6975  142.5180  170.0578 F       1  UNL1       -0.1659
     23 C         140.8422  142.2344  161.1072 C.ar    1  UNL1        0.0172
     24 C         141.2883  141.3182  160.0065 C.ar    1  UNL1       -0.0004
     25 C         140.9402  141.6323  158.5817 C.ar    1  UNL1        0.0101
     26 C         140.1459  142.8628  158.2576 C.ar    1  UNL1        0.0697
     27 C         139.6998  143.7790  159.3583 C.ar    1  UNL1        0.0284
     28 C         140.0479  143.4649  160.7831 C.ar    1  UNL1        0.1043
     29 S         139.6018  144.3811  161.8837 S.O2    1  UNL1        0.0110
     30 O         138.3158  143.6214  161.7456 O.2     1  UNL1       -0.1686
     31 O         140.9523  145.0339  161.8877 O.2     1  UNL1       -0.1686
     32 C         139.1556  145.2974  162.9844 C.3     1  UNL1        0.1875
     33 C         138.9333  144.7572  164.3660 C.3     1  UNL1        0.1629
     34 O         137.8020  143.8073  164.6267 O.3     1  UNL1       -0.3801
     35 H         136.9576  144.2658  164.4938 H       1  UNL1        0.2105
     36 C         139.7978  143.1770  156.8328 C.1     1  UNL1        0.1005
     37 N         139.4496  143.4911  155.4080 N.1     1  UNL1       -0.1908
@<TRIPOS>BOND
     1     1     2    1
     2     2     3   am
     3     3     4    2
     4     3     5   am
     5     5    13    1
     6    13    14   ar
     7    14    15   ar
     8    15    16   ar
     9    16    17   ar
    10    17    19    1
    11    19    20    1
    12    19    21    1
    13    19    22    1
    14    17    18   ar
    15     5     6    1
    16     6     7    2
    17     7     8    1
    18     8     9    2
    19     8    10    1
    20    10    11    1
    21     7    12    1
    22    12    23    1
    23    23    24   ar
    24    24    25   ar
    25    25    26   ar
    26    26    36    1
    27    36    37    3
    28    26    27   ar
    29    27    28   ar
    30    28    29    1
    31    29    30    2
    32    29    31    2
    33    29    32    1
    34    32    33    1
    35    33    34    1
    36    12     2    1
    37    28    23   ar
    38    18    13   ar
    39    11     6    1
    40    34    35    1
@<TRIPOS>MOLECULE
*****
 37 40 0 0 0
SMALL
GASTEIGER

@<TRIPOS>ATOM
      1 C         137.7975  142.4813  164.5300 C.3     1  UNL1        0.1171
      2 N         138.9289  142.3006  163.5618 N.am    1  UNL1       -0.2557
      3 C         138.8879  142.5070  162.0768 C.2     1  UNL1        0.3150
      4 O         137.6138  142.9411  161.4147 O.2     1  UNL1       -0.2516
      5 N         140.1211  142.2795  161.2536 N.am    1  UNL1       -0.2256
      6 C         141.3952  141.8456  161.9156 C.2     1  UNL1        0.0380
      7 C         141.4362  141.6391  163.4007 C.2     1  UNL1        0.0447
      8 C         142.8256  141.2120  163.7712 C.2     1  UNL1        0.1723
      9 O         143.3119  140.8976  165.1549 O.2     1  UNL1       -0.2916
     10 C         143.6433  141.1546  162.5150 C.3     1  UNL1        0.0749
     11 C         142.7592  141.5461  161.3681 C.3     1  UNL1        0.0498
     12 C         140.2031  141.8666  164.2239 C.3     1  UNL1        0.1269
     13 C         140.0800  142.4860  159.7684 C.ar    1  UNL1        0.0592
     14 C         139.9972  141.3039  158.8488 C.ar    1  UNL1        0.0153
     15 C         139.9561  141.5105  157.3637 C.ar    1  UNL1        0.0012
     16 C         139.9980  142.8991  156.7981 C.ar    1  UNL1        0.0039
     17 C         140.0809  144.0813  157.7178 C.ar    1  UNL1        0.0727
     18 C         140.1219  143.8748  159.2028 C.ar    1  UNL1        0.0191
     19 C         140.1228  145.4699  157.1522 C.3     1  UNL1        0.4186
     20 F         140.1646  146.8586  156.5866 F       1  UNL1       -0.1659
     21 F         140.2810  144.9032  155.7724 F       1  UNL1       -0.1659
     22 F         139.9645  146.0367  158.5319 F       1  UNL1       -0.1659
     23 C         140.2440  141.6601  165.7091 C.ar    1  UNL1        0.0172
     24 C         140.5905  142.8036  166.6159 C.ar    1  UNL1       -0.0004
     25 C         140.6315  142.5972  168.1011 C.ar    1  UNL1        0.0101
     26 C         140.3259  141.2473  168.6794 C.ar    1  UNL1        0.0697
     27 C         139.9794  140.1039  167.7725 C.ar    1  UNL1        0.0284
     28 C         139.9384  140.3102  166.2873 C.ar    1  UNL1        0.1043
     29 S         139.5919  139.1667  165.3805 S.O2    1  UNL1        0.0110
     30 O         138.1921  139.6615  165.5941 O.2     1  UNL1       -0.1686
     31 O         141.0449  138.8087  165.2768 O.2     1  UNL1       -0.1686
     32 C         139.2454  138.0233  164.4737 C.3     1  UNL1        0.1875
     33 C         140.0067  137.8212  163.1971 C.3     1  UNL1        0.1629
     34 O         141.0907  136.7868  163.1261 O.3     1  UNL1       -0.3801
     35 H         141.8206  137.0426  163.7116 H       1  UNL1        0.2105
     36 C         140.3668  141.0410  170.1645 C.1     1  UNL1        0.1005
     37 N         140.4077  140.8346  171.6498 N.1     1  UNL1       -0.1908
@<TRIPOS>BOND
     1     1     2    1
     2     2     3   am
     3     3     4    2
     4     3     5   am
     5     5    13    1
     6    13    14   ar
     7    14    15   ar
     8    15    16   ar
     9    16    17   ar
    10    17    19    1
    11    19    20    1
    12    19    21    1
    13    19    22    1
    14    17    18   ar
    15     5     6    1
    16     6     7    2
    17     7     8    1
    18     8     9    2
    19     8    10    1
    20    10    11    1
    21     7    12    1
    22    12    23    1
    23    23    24   ar
    24    24    25   ar
    25    25    26   ar
    26    26    36    1
    27    36    37    3
    28    26    27   ar
    29    27    28   ar
    30    28    29    1
    31    29    30    2
    32    29    31    2
    33    29    32    1
    34    32    33    1
    35    33    34    1
    36    12     2    1
    37    28    23   ar
    38    18    13   ar
    39    11     6    1
    40    34    35    1
@<TRIPOS>MOLECULE
*****
 37 40 0 0 0
SMALL
GASTEIGER

@<TRIPOS>ATOM
      1 C         139.1827  144.7806  162.7196 C.3     1  UNL1        0.1171
      2 N         139.9805  143.6713  163.3387 N.am    1  UNL1       -0.2557
      3 C         140.0163  143.2850  164.7875 C.2     1  UNL1        0.3150
      4 O         139.1924  144.0424  165.7864 O.2     1  UNL1       -0.2516
      5 N         140.8759  142.1412  165.2377 N.am    1  UNL1       -0.2256
      6 C         141.6998  141.3837  164.2389 C.2     1  UNL1        0.0380
      7 C         141.6640  141.7701  162.7900 C.2     1  UNL1        0.0447
      8 C         142.5773  140.8456  162.0410 C.2     1  UNL1        0.1723
      9 O         142.8436  140.8738  160.5651 O.2     1  UNL1       -0.2916
     10 C         143.1776  139.8878  163.0270 C.3     1  UNL1        0.0749
     11 C         142.6353  140.2204  164.3855 C.3     1  UNL1        0.0498
     12 C         140.8044  142.9139  162.3398 C.3     1  UNL1        0.1269
     13 C         140.9117  141.7548  166.6867 C.ar    1  UNL1        0.0592
     14 C         140.0654  140.6194  167.1812 C.ar    1  UNL1        0.0153
     15 C         140.1013  140.2331  168.6302 C.ar    1  UNL1        0.0012
     16 C         140.9834  140.9821  169.5846 C.ar    1  UNL1        0.0039
     17 C         141.8297  142.1176  169.0899 C.ar    1  UNL1        0.0727
     18 C         141.7939  142.5039  167.6411 C.ar    1  UNL1        0.0191
     19 C         142.7117  142.8666  170.0443 C.3     1  UNL1        0.4186
     20 F         143.5938  143.6157  170.9987 F       1  UNL1       -0.1659
     21 F         141.6484  143.9121  170.2066 F       1  UNL1       -0.1659
     22 F         143.7751  141.8212  169.8821 F       1  UNL1       -0.1659
     23 C         140.7685  143.3004  160.8909 C.ar    1  UNL1        0.0172
     24 C         141.7401  144.3126  160.3604 C.ar    1  UNL1       -0.0004
     25 C         141.7043  144.6991  158.9115 C.ar    1  UNL1        0.0101
     26 C         140.6969  144.0733  157.9931 C.ar    1  UNL1        0.0697
     27 C         139.7253  143.0611  158.5235 C.ar    1  UNL1        0.0284
     28 C         139.7611  142.6746  159.9724 C.ar    1  UNL1        0.1043
     29 S         138.7895  141.6623  160.5029 S.O2    1  UNL1        0.0110
     30 O         137.9376  142.8743  160.7381 O.2     1  UNL1       -0.1686
     31 O         139.7672  140.5656  160.2007 O.2     1  UNL1       -0.1686
     32 C         137.8180  140.6501  161.0333 C.3     1  UNL1        0.1875
     33 C         137.6227  140.5016  162.5131 C.3     1  UNL1        0.1629
     34 O         136.6292  141.3678  163.2291 O.3     1  UNL1       -0.3801
     35 H         136.9228  142.2918  163.1960 H       1  UNL1        0.2105
     36 C         140.6612  144.4598  156.5442 C.1     1  UNL1        0.1005
     37 N         140.6253  144.8463  155.0952 N.1     1  UNL1       -0.1908
@<TRIPOS>BOND
     1     1     2    1
     2     2     3   am
     3     3     4    2
     4     3     5   am
     5     5    13    1
     6    13    14   ar
     7    14    15   ar
     8    15    16   ar
     9    16    17   ar
    10    17    19    1
    11    19    20    1
    12    19    21    1
    13    19    22    1
    14    17    18   ar
    15     5     6    1
    16     6     7    2
    17     7     8    1
    18     8     9    2
    19     8    10    1
    20    10    11    1
    21     7    12    1
    22    12    23    1
    23    23    24   ar
    24    24    25   ar
    25    25    26   ar
    26    26    36    1
    27    36    37    3
    28    26    27   ar
    29    27    28   ar
    30    28    29    1
    31    29    30    2
    32    29    31    2
    33    29    32    1
    34    32    33    1
    35    33    34    1
    36    12     2    1
    37    28    23   ar
    38    18    13   ar
    39    11     6    1
    40    34    35    1
@<TRIPOS>MOLECULE
*****
 37 40 0 0 0
SMALL
GASTEIGER

@<TRIPOS>ATOM
      1 C         140.9704  139.7213  161.7334 C.3     1  UNL1        0.1171
      2 N         140.6271  140.6699  162.8435 N.am    1  UNL1       -0.2557
      3 C         140.7755  140.4275  164.3163 C.2     1  UNL1        0.3150
      4 O         141.3188  139.1194  164.8102 O.2     1  UNL1       -0.2516
      5 N         140.3806  141.4931  165.2953 N.am    1  UNL1       -0.2256
      6 C         139.8373  142.8012  164.8015 C.2     1  UNL1        0.0380
      7 C         139.6889  143.0436  163.3286 C.2     1  UNL1        0.0447
      8 C         139.1279  144.4218  163.1399 C.2     1  UNL1        0.1723
      9 O         138.8194  145.0759  161.8257 O.2     1  UNL1       -0.2916
     10 C         138.9296  145.0312  164.4961 C.3     1  UNL1        0.0749
     11 C         139.3680  144.0296  165.5230 C.3     1  UNL1        0.0498
     12 C         140.0838  141.9779  162.3496 C.3     1  UNL1        0.1269
     13 C         140.5290  141.2507  166.7681 C.ar    1  UNL1        0.0592
     14 C         139.6281  140.2723  167.4617 C.ar    1  UNL1        0.0153
     15 C         139.7765  140.0299  168.9346 C.ar    1  UNL1        0.0012
     16 C         140.8258  140.7659  169.7138 C.ar    1  UNL1        0.0039
     17 C         141.7267  141.7444  169.0202 C.ar    1  UNL1        0.0727
     18 C         141.5783  141.9868  167.5474 C.ar    1  UNL1        0.0191
     19 C         142.7760  142.4804  169.7995 C.3     1  UNL1        0.4186
     20 F         143.8252  143.2164  170.5787 F       1  UNL1       -0.1659
     21 F         141.8557  143.6581  169.9263 F       1  UNL1       -0.1659
     22 F         143.6963  141.3028  169.6726 F       1  UNL1       -0.1659
     23 C         139.9355  142.2203  160.8768 C.ar    1  UNL1        0.0172
     24 C         138.6288  141.9349  160.1976 C.ar    1  UNL1       -0.0004
     25 C         138.4804  142.1772  158.7248 C.ar    1  UNL1        0.0101
     26 C         139.6386  142.7049  157.9312 C.ar    1  UNL1        0.0697
     27 C         140.9453  142.9903  158.6103 C.ar    1  UNL1        0.0284
     28 C         141.0937  142.7480  160.0831 C.ar    1  UNL1        0.1043
     29 S         142.4004  143.0334  160.7622 S.O2    1  UNL1        0.0110
     30 O         142.7345  141.6466  160.2982 O.2     1  UNL1       -0.1686
     31 O         141.9032  144.3955  161.1463 O.2     1  UNL1       -0.1686
     32 C         143.7070  143.3188  161.4413 C.3     1  UNL1        0.1875
     33 C         143.7289  144.0668  162.7413 C.3     1  UNL1        0.1629
     34 O         143.9514  145.5503  162.7493 O.3     1  UNL1       -0.3801
     35 H         144.8484  145.7444  162.4351 H       1  UNL1        0.2105
     36 C         139.4902  142.9472  156.4583 C.1     1  UNL1        0.1005
     37 N         139.3417  143.1896  154.9854 N.1     1  UNL1       -0.1908
@<TRIPOS>BOND
     1     1     2    1
     2     2     3   am
     3     3     4    2
     4     3     5   am
     5     5    13    1
     6    13    14   ar
     7    14    15   ar
     8    15    16   ar
     9    16    17   ar
    10    17    19    1
    11    19    20    1
    12    19    21    1
    13    19    22    1
    14    17    18   ar
    15     5     6    1
    16     6     7    2
    17     7     8    1
    18     8     9    2
    19     8    10    1
    20    10    11    1
    21     7    12    1
    22    12    23    1
    23    23    24   ar
    24    24    25   ar
    25    25    26   ar
    26    26    36    1
    27    36    37    3
    28    26    27   ar
    29    27    28   ar
    30    28    29    1
    31    29    30    2
    32    29    31    2
    33    29    32    1
    34    32    33    1
    35    33    34    1
    36    12     2    1
    37    28    23   ar
    38    18    13   ar
    39    11     6    1
    40    34    35    1
@<TRIPOS>MOLECULE
*****
 37 40 0 0 0
SMALL
GASTEIGER

@<TRIPOS>ATOM
      1 C         137.9673  139.9255  164.3481 C.3     1  UNL1        0.1171
      2 N         139.3924  140.1980  164.7287 N.am    1  UNL1       -0.2557
      3 C         139.9762  140.1844  166.1103 C.2     1  UNL1        0.3150
      4 O         139.1038  139.8730  167.2902 O.2     1  UNL1       -0.2516
      5 N         141.4324  140.4820  166.3121 N.am    1  UNL1       -0.2256
      6 C         142.3049  140.7933  165.1323 C.2     1  UNL1        0.0380
      7 C         141.7210  140.8070  163.7506 C.2     1  UNL1        0.0447
      8 C         142.8193  141.1455  162.7866 C.2     1  UNL1        0.1723
      9 O         142.6794  141.2672  161.2981 O.2     1  UNL1       -0.2916
     10 C         144.0818  141.3411  163.5726 C.3     1  UNL1        0.0749
     11 C         143.7639  141.1234  165.0222 C.3     1  UNL1        0.0498
     12 C         140.2648  140.5093  163.5488 C.3     1  UNL1        0.1269
     13 C         142.0163  140.4683  167.6938 C.ar    1  UNL1        0.0592
     14 C         142.2322  139.1648  168.4038 C.ar    1  UNL1        0.0153
     15 C         142.8161  139.1512  169.7855 C.ar    1  UNL1        0.0012
     16 C         143.1839  140.4410  170.4571 C.ar    1  UNL1        0.0039
     17 C         142.9679  141.7445  169.7469 C.ar    1  UNL1        0.0727
     18 C         142.3841  141.7582  168.3654 C.ar    1  UNL1        0.0191
     19 C         143.3358  143.0343  170.4185 C.3     1  UNL1        0.4186
     20 F         143.7037  144.3241  171.0901 F       1  UNL1       -0.1659
     21 F         141.8817  143.3674  170.5754 F       1  UNL1       -0.1659
     22 F         144.7899  142.7013  170.2617 F       1  UNL1       -0.1659
     23 C         139.6809  140.5230  162.1671 C.ar    1  UNL1        0.0172
     24 C         139.6657  139.2672  161.3469 C.ar    1  UNL1       -0.0004
     25 C         139.0818  139.2808  159.9653 C.ar    1  UNL1        0.0101
     26 C         138.5131  140.5502  159.4040 C.ar    1  UNL1        0.0697
     27 C         138.5283  141.8060  160.2241 C.ar    1  UNL1        0.0284
     28 C         139.1122  141.7924  161.6058 C.ar    1  UNL1        0.1043
     29 S         139.1274  143.0482  162.4260 S.O2    1  UNL1        0.0110
     30 O         140.4404  143.2658  161.7340 O.2     1  UNL1       -0.1686
     31 O         137.8027  142.6747  163.0224 O.2     1  UNL1       -0.1686
     32 C         139.1426  144.3040  163.2462 C.3     1  UNL1        0.1875
     33 C         139.6311  145.5877  162.6432 C.3     1  UNL1        0.1629
     34 O         141.0678  145.9902  162.7985 O.3     1  UNL1       -0.3801
     35 H         141.2544  146.1686  163.7335 H       1  UNL1        0.2105
     36 C         137.9292  140.5638  158.0223 C.1     1  UNL1        0.1005
     37 N         137.3454  140.5773  156.6406 N.1     1  UNL1       -0.1908
@<TRIPOS>BOND
     1     1     2    1
     2     2     3   am
     3     3     4    2
     4     3     5   am
     5     5    13    1
     6    13    14   ar
     7    14    15   ar
     8    15    16   ar
     9    16    17   ar
    10    17    19    1
    11    19    20    1
    12    19    21    1
    13    19    22    1
    14    17    18   ar
    15     5     6    1
    16     6     7    2
    17     7     8    1
    18     8     9    2
    19     8    10    1
    20    10    11    1
    21     7    12    1
    22    12    23    1
    23    23    24   ar
    24    24    25   ar
    25    25    26   ar
    26    26    36    1
    27    36    37    3
    28    26    27   ar
    29    27    28   ar
    30    28    29    1
    31    29    30    2
    32    29    31    2
    33    29    32    1
    34    32    33    1
    35    33    34    1
    36    12     2    1
    37    28    23   ar
    38    18    13   ar
    39    11     6    1
    40    34    35    1
@<TRIPOS>MOLECULE
*****
 37 40 0 0 0
SMALL
GASTEIGER

@<TRIPOS>ATOM
      1 C         142.8913  142.5329  162.9979 C.3     1  UNL1        0.1171
      2 N         142.0586  141.3744  162.5348 N.am    1  UNL1       -0.2557
      3 C         141.9279  140.8603  161.1318 C.2     1  UNL1        0.3150
      4 O         142.6803  141.5240  160.0167 O.2     1  UNL1       -0.2516
      5 N         141.0448  139.6825  160.8438 N.am    1  UNL1       -0.2256
      6 C         140.2924  139.0188  161.9588 C.2     1  UNL1        0.0380
      7 C         140.4231  139.5329  163.3619 C.2     1  UNL1        0.0447
      8 C         139.5655  138.6806  164.2497 C.2     1  UNL1        0.1723
      9 O         139.3980  138.8410  165.7316 O.2     1  UNL1       -0.2916
     10 C         138.9048  137.6398  163.3952 C.3     1  UNL1        0.0749
     11 C         139.3540  137.8488  161.9794 C.3     1  UNL1        0.0498
     12 C         141.3062  140.7107  163.6500 C.3     1  UNL1        0.1269
     13 C         140.9142  139.1684  159.4407 C.ar    1  UNL1        0.0592
     14 C         139.7088  139.5230  158.6212 C.ar    1  UNL1        0.0153
     15 C         139.5783  139.0088  157.2181 C.ar    1  UNL1        0.0012
     16 C         140.6529  138.1402  156.6345 C.ar    1  UNL1        0.0039
     17 C         141.8583  137.7857  157.4540 C.ar    1  UNL1        0.0727
     18 C         141.9889  138.2998  158.8570 C.ar    1  UNL1        0.0191
     19 C         142.9329  136.9172  156.8704 C.3     1  UNL1        0.4186
     20 F         144.0076  136.0486  156.2867 F       1  UNL1       -0.1659
     21 F         142.8012  137.6348  155.5598 F       1  UNL1       -0.1659
     22 F         143.0646  136.1995  158.1809 F       1  UNL1       -0.1659
     23 C         141.4369  141.2248  165.0531 C.ar    1  UNL1        0.0172
     24 C         142.5324  140.7126  165.9404 C.ar    1  UNL1       -0.0004
     25 C         142.6632  141.2267  167.3435 C.ar    1  UNL1        0.0101
     26 C         141.6985  142.2530  167.8591 C.ar    1  UNL1        0.0697
     27 C         140.6029  142.7652  166.9718 C.ar    1  UNL1        0.0284
     28 C         140.4721  142.2511  165.5687 C.ar    1  UNL1        0.1043
     29 S         139.3766  142.7633  164.6813 S.O2    1  UNL1        0.0110
     30 O         138.5917  141.6563  165.3206 O.2     1  UNL1       -0.1686
     31 O         140.3019  143.8156  164.1463 O.2     1  UNL1       -0.1686
     32 C         138.2810  143.2755  163.7940 C.3     1  UNL1        0.1875
     33 C         137.6691  142.3751  162.7621 C.3     1  UNL1        0.1629
     34 O         136.6552  141.3475  163.1698 O.3     1  UNL1       -0.3801
     35 H         137.0782  140.6825  163.7352 H       1  UNL1        0.2105
     36 C         141.8293  142.7671  169.2622 C.1     1  UNL1        0.1005
     37 N         141.9601  143.2811  170.6654 N.1     1  UNL1       -0.1908
@<TRIPOS>BOND
     1     1     2    1
     2     2     3   am
     3     3     4    2
     4     3     5   am
     5     5    13    1
     6    13    14   ar
     7    14    15   ar
     8    15    16   ar
     9    16    17   ar
    10    17    19    1
    11    19    20    1
    12    19    21    1
    13    19    22    1
    14    17    18   ar
    15     5     6    1
    16     6     7    2
    17     7     8    1
    18     8     9    2
    19     8    10    1
    20    10    11    1
    21     7    12    1
    22    12    23    1
    23    23    24   ar
    24    24    25   ar
    25    25    26   ar
    26    26    36    1
    27    36    37    3
    28    26    27   ar
    29    27    28   ar
    30    28    29    1
    31    29    30    2
    32    29    31    2
    33    29    32    1
    34    32    33    1
    35    33    34    1
    36    12     2    1
    37    28    23   ar
    38    18    13   ar
    39    11     6    1
    40    34    35    1
