@<TRIPOS>MOLECULE
*****
 29 32 0 0 0
SMALL
GASTEIGER

@<TRIPOS>ATOM
      1 N         139.5906  140.5683  166.2871 N.ar    1  UNL1       -0.2155
      2 N         140.5026  141.3666  165.4034 N.ar    1  UNL1       -0.1693
      3 C         141.7263  142.0153  165.9794 C.ar    1  UNL1        0.1007
      4 C         142.0380  141.8657  167.4390 C.ar    1  UNL1        0.1014
      5 N         143.2617  142.5144  168.0149 N.ar    1  UNL1       -0.2424
      6 C         143.5734  142.3648  169.4745 C.ar    1  UNL1        0.0989
      7 C         142.6613  141.5665  170.3582 C.ar    1  UNL1        0.0208
      8 C         141.4376  140.9178  169.7823 C.ar    1  UNL1        0.0079
      9 C         141.1260  141.0674  168.3227 C.ar    1  UNL1        0.0764
     10 C         139.9022  140.4187  167.7467 C.ar    1  UNL1        0.2778
     11 O         138.9902  139.6204  168.6304 O.2     1  UNL1       -0.2655
     12 C         138.3668  139.9196  165.7111 C.3     1  UNL1        0.1465
     13 N         137.9377  140.0037  163.0742 N.3     1  UNL1       -0.2721
     14 C         138.1654  139.0586  161.9318 C.3     1  UNL1        0.0722
     15 C         138.7762  137.8042  162.4827 C.3     1  UNL1        0.0188
     16 C         138.9260  137.9741  163.9655 C.3     1  UNL1        0.0194
     17 C         138.4078  139.3334  164.3311 C.3     1  UNL1        0.0821
     18 C         137.3442  141.3778  162.9767 C.3     1  UNL1        0.0721
     19 C         138.2383  142.5715  162.8169 C.3     1  UNL1        0.0173
     20 C         138.0017  144.2304  164.8023 C.3     1  UNL1        0.0000
     21 C         137.8099  143.9063  163.3503 C.3     1  UNL1        0.0014
     22 C         142.6383  142.8136  165.0957 C.3     1  UNL1        0.0754
     23 C         142.0947  143.4891  163.8717 C.ar    1  UNL1       -0.0160
     24 C         141.5530  144.8849  163.9634 C.ar    1  UNL1       -0.0030
     25 C         141.0094  145.5603  162.7394 C.ar    1  UNL1        0.0111
     26 C         141.0074  144.8400  161.4237 C.ar    1  UNL1        0.0577
     27 CL        140.4638  145.5155  160.1997 Cl      1  UNL1       -0.0822
     28 C         141.5490  143.4443  161.3319 C.ar    1  UNL1        0.0111
     29 C         142.0927  142.7688  162.5560 C.ar    1  UNL1       -0.0030
@<TRIPOS>BOND
     1    20    21    1
     2    21    19    1
     3    19    18    1
     4    18    13    1
     5    13    14    1
     6    14    15    1
     7    15    16    1
     8    16    17    1
     9    17    12    1
    10    12     1    1
    11     1     2   ar
    12     2     3   ar
    13     3    22    1
    14    22    23    1
    15    23    24   ar
    16    24    25   ar
    17    25    26   ar
    18    26    27    1
    19    26    28   ar
    20    28    29   ar
    21     3     4   ar
    22     4     5   ar
    23     5     6   ar
    24     6     7   ar
    25     7     8   ar
    26     8     9   ar
    27     9    10   ar
    28    10    11    2
    29    17    13    1
    30    10     1   ar
    31    29    23   ar
    32     9     4   ar
@<TRIPOS>MOLECULE
*****
 29 32 0 0 0
SMALL
GASTEIGER

@<TRIPOS>ATOM
      1 N         142.4883  141.4179  166.3573 N.ar    1  UNL1       -0.2155
      2 N         141.3646  140.5373  165.8970 N.ar    1  UNL1       -0.1693
      3 C         140.3887  139.9845  166.8930 C.ar    1  UNL1        0.1007
      4 C         140.5364  140.3123  168.3493 C.ar    1  UNL1        0.1014
      5 N         139.5605  139.7596  169.3452 N.ar    1  UNL1       -0.2424
      6 C         139.7083  140.0874  170.8014 C.ar    1  UNL1        0.0989
      7 C         140.8320  140.9681  171.2617 C.ar    1  UNL1        0.0208
      8 C         141.8079  141.5208  170.2657 C.ar    1  UNL1        0.0079
      9 C         141.6601  141.1930  168.8095 C.ar    1  UNL1        0.0764
     10 C         142.6361  141.7458  167.8135 C.ar    1  UNL1        0.2778
     11 O         143.7597  142.6264  168.2737 O.2     1  UNL1       -0.2655
     12 C         143.4642  141.9707  165.3612 C.3     1  UNL1        0.1465
     13 N         141.9084  143.8792  164.3212 N.3     1  UNL1       -0.2721
     14 C         142.1412  145.2562  163.7739 C.3     1  UNL1        0.0722
     15 C         143.6090  145.5509  163.8691 C.3     1  UNL1        0.0188
     16 C         144.2832  144.3560  164.4753 C.3     1  UNL1        0.0194
     17 C         143.2322  143.3228  164.7547 C.3     1  UNL1        0.0821
     18 C         140.5843  143.1812  164.4181 C.3     1  UNL1        0.0721
     19 C         139.5534  143.6605  165.3967 C.3     1  UNL1        0.0173
     20 C         137.7834  144.2185  163.5787 C.3     1  UNL1        0.0000
     21 C         138.3953  144.4869  164.9216 C.3     1  UNL1        0.0014
     22 C         139.2650  139.1038  166.4327 C.3     1  UNL1        0.0754
     23 C         138.7976  139.1670  165.0088 C.ar    1  UNL1       -0.0160
     24 C         138.1205  140.4034  164.4959 C.ar    1  UNL1       -0.0030
     25 C         137.6530  140.4666  163.0720 C.ar    1  UNL1        0.0111
     26 C         137.8626  139.2934  162.1610 C.ar    1  UNL1        0.0577
     27 CL        137.3951  139.3566  160.7372 Cl      1  UNL1       -0.0822
     28 C         138.5396  138.0571  162.6739 C.ar    1  UNL1        0.0111
     29 C         139.0071  137.9939  164.0979 C.ar    1  UNL1       -0.0030
@<TRIPOS>BOND
     1    20    21    1
     2    21    19    1
     3    19    18    1
     4    18    13    1
     5    13    14    1
     6    14    15    1
     7    15    16    1
     8    16    17    1
     9    17    12    1
    10    12     1    1
    11     1     2   ar
    12     2     3   ar
    13     3    22    1
    14    22    23    1
    15    23    24   ar
    16    24    25   ar
    17    25    26   ar
    18    26    27    1
    19    26    28   ar
    20    28    29   ar
    21     3     4   ar
    22     4     5   ar
    23     5     6   ar
    24     6     7   ar
    25     7     8   ar
    26     8     9   ar
    27     9    10   ar
    28    10    11    2
    29    17    13    1
    30    10     1   ar
    31    29    23   ar
    32     9     4   ar
@<TRIPOS>MOLECULE
*****
 29 32 0 0 0
SMALL
GASTEIGER

@<TRIPOS>ATOM
      1 N         141.7979  139.0724  165.5234 N.ar    1  UNL1       -0.2155
      2 N         140.6388  139.9531  165.1614 N.ar    1  UNL1       -0.1693
      3 C         140.2133  141.0520  166.0895 C.ar    1  UNL1        0.1007
      4 C         140.9468  141.2703  167.3796 C.ar    1  UNL1        0.1014
      5 N         140.5213  142.3692  168.3076 N.ar    1  UNL1       -0.2424
      6 C         141.2549  142.5874  169.5977 C.ar    1  UNL1        0.0989
      7 C         142.4139  141.7068  169.9597 C.ar    1  UNL1        0.0208
      8 C         142.8394  140.6079  169.0316 C.ar    1  UNL1        0.0079
      9 C         142.1059  140.3896  167.7416 C.ar    1  UNL1        0.0764
     10 C         142.5314  139.2907  166.8135 C.ar    1  UNL1        0.2778
     11 O         143.6905  138.4100  167.1755 O.2     1  UNL1       -0.2655
     12 C         142.2234  137.9735  164.5953 C.3     1  UNL1        0.1465
     13 N         143.9931  139.0886  162.9312 N.3     1  UNL1       -0.2721
     14 C         144.1357  139.1807  161.4408 C.3     1  UNL1        0.0722
     15 C         142.9796  138.4548  160.8189 C.3     1  UNL1        0.0188
     16 C         142.1226  137.9143  161.9249 C.3     1  UNL1        0.0194
     17 C         142.7489  138.3060  163.2304 C.3     1  UNL1        0.0821
     18 C         144.9301  139.6762  163.9445 C.3     1  UNL1        0.0721
     19 C         145.0333  141.1649  164.0963 C.3     1  UNL1        0.0173
     20 C         143.9938  142.9203  165.7049 C.3     1  UNL1        0.0000
     21 C         143.8479  141.9548  164.5662 C.3     1  UNL1        0.0014
     22 C         139.0542  141.9326  165.7275 C.3     1  UNL1        0.0754
     23 C         139.2409  143.0532  164.7480 C.ar    1  UNL1       -0.0160
     24 C         140.5703  143.7392  164.6376 C.ar    1  UNL1       -0.0030
     25 C         140.7570  144.8597  163.6581 C.ar    1  UNL1        0.0111
     26 C         139.6144  145.2944  162.7890 C.ar    1  UNL1        0.0577
     27 CL        139.8011  146.4149  161.8095 Cl      1  UNL1       -0.0822
     28 C         138.2850  144.6084  162.8994 C.ar    1  UNL1        0.0111
     29 C         138.0982  143.4878  163.8789 C.ar    1  UNL1       -0.0030
@<TRIPOS>BOND
     1    20    21    1
     2    21    19    1
     3    19    18    1
     4    18    13    1
     5    13    14    1
     6    14    15    1
     7    15    16    1
     8    16    17    1
     9    17    12    1
    10    12     1    1
    11     1     2   ar
    12     2     3   ar
    13     3    22    1
    14    22    23    1
    15    23    24   ar
    16    24    25   ar
    17    25    26   ar
    18    26    27    1
    19    26    28   ar
    20    28    29   ar
    21     3     4   ar
    22     4     5   ar
    23     5     6   ar
    24     6     7   ar
    25     7     8   ar
    26     8     9   ar
    27     9    10   ar
    28    10    11    2
    29    17    13    1
    30    10     1   ar
    31    29    23   ar
    32     9     4   ar
@<TRIPOS>MOLECULE
*****
 29 32 0 0 0
SMALL
GASTEIGER

@<TRIPOS>ATOM
      1 N         139.1433  139.4892  165.6830 N.ar    1  UNL1       -0.2155
      2 N         140.0694  140.5275  165.1224 N.ar    1  UNL1       -0.1693
      3 C         140.7138  141.5288  166.0346 C.ar    1  UNL1        0.1007
      4 C         140.4321  141.4918  167.5075 C.ar    1  UNL1        0.1014
      5 N         141.0764  142.4931  168.4197 N.ar    1  UNL1       -0.2424
      6 C         140.7947  142.4560  169.8925 C.ar    1  UNL1        0.0989
      7 C         139.8687  141.4176  170.4531 C.ar    1  UNL1        0.0208
      8 C         139.2243  140.4164  169.5409 C.ar    1  UNL1        0.0079
      9 C         139.5060  140.4534  168.0681 C.ar    1  UNL1        0.0764
     10 C         138.8617  139.4521  167.1558 C.ar    1  UNL1        0.2778
     11 O         137.9356  138.4138  167.7164 O.2     1  UNL1       -0.2655
     12 C         138.4990  138.4879  164.7706 C.3     1  UNL1        0.1465
     13 N         140.0012  137.9419  162.6282 N.3     1  UNL1       -0.2721
     14 C         139.8801  138.1970  161.1550 C.3     1  UNL1        0.0722
     15 C         138.5937  138.9305  160.9157 C.3     1  UNL1        0.0188
     16 C         137.9198  139.1287  162.2411 C.3     1  UNL1        0.0194
     17 C         138.7896  138.5178  163.2994 C.3     1  UNL1        0.0821
     18 C         141.1348  137.2351  163.3103 C.3     1  UNL1        0.0721
     19 C         142.2514  138.0266  163.9242 C.3     1  UNL1        0.0173
     20 C         143.6148  138.7325  166.0200 C.3     1  UNL1        0.0000
     21 C         142.4301  138.0407  165.4134 C.3     1  UNL1        0.0014
     22 C         141.6398  142.5672  165.4740 C.3     1  UNL1        0.0754
     23 C         141.1319  143.5643  164.4752 C.ar    1  UNL1       -0.0160
     24 C         142.0459  144.0885  163.4074 C.ar    1  UNL1       -0.0030
     25 C         141.5381  145.0856  162.4086 C.ar    1  UNL1        0.0111
     26 C         140.1162  145.5586  162.4773 C.ar    1  UNL1        0.0577
     27 CL        139.6084  146.5557  161.4785 Cl      1  UNL1       -0.0822
     28 C         139.2023  145.0344  163.5450 C.ar    1  UNL1        0.0111
     29 C         139.7101  144.0373  164.5439 C.ar    1  UNL1       -0.0030
@<TRIPOS>BOND
     1    20    21    1
     2    21    19    1
     3    19    18    1
     4    18    13    1
     5    13    14    1
     6    14    15    1
     7    15    16    1
     8    16    17    1
     9    17    12    1
    10    12     1    1
    11     1     2   ar
    12     2     3   ar
    13     3    22    1
    14    22    23    1
    15    23    24   ar
    16    24    25   ar
    17    25    26   ar
    18    26    27    1
    19    26    28   ar
    20    28    29   ar
    21     3     4   ar
    22     4     5   ar
    23     5     6   ar
    24     6     7   ar
    25     7     8   ar
    26     8     9   ar
    27     9    10   ar
    28    10    11    2
    29    17    13    1
    30    10     1   ar
    31    29    23   ar
    32     9     4   ar
@<TRIPOS>MOLECULE
*****
 29 32 0 0 0
SMALL
GASTEIGER

@<TRIPOS>ATOM
      1 N         141.6309  139.5223  163.0678 N.ar    1  UNL1       -0.2155
      2 N         141.4833  140.8296  163.7885 N.ar    1  UNL1       -0.1693
      3 C         140.5123  140.9540  164.9250 C.ar    1  UNL1        0.1007
      4 C         139.6888  139.7712  165.3409 C.ar    1  UNL1        0.1014
      5 N         138.7179  139.8956  166.4774 N.ar    1  UNL1       -0.2424
      6 C         137.8945  138.7128  166.8932 C.ar    1  UNL1        0.0989
      7 C         138.0421  137.4056  166.1726 C.ar    1  UNL1        0.0208
      8 C         139.0131  137.2811  165.0361 C.ar    1  UNL1        0.0079
      9 C         139.8364  138.4639  164.6202 C.ar    1  UNL1        0.0764
     10 C         140.8075  138.3395  163.4837 C.ar    1  UNL1        0.2778
     11 O         140.9551  137.0323  162.7630 O.2     1  UNL1       -0.2655
     12 C         142.6019  139.3979  161.9312 C.3     1  UNL1        0.1465
     13 N         144.3660  141.4007  161.7835 N.3     1  UNL1       -0.2721
     14 C         144.5847  142.5548  160.8507 C.3     1  UNL1        0.0722
     15 C         143.5288  142.4975  159.7868 C.3     1  UNL1        0.0188
     16 C         142.6575  141.3080  160.0621 C.3     1  UNL1        0.0194
     17 C         143.1749  140.6301  161.2961 C.3     1  UNL1        0.0821
     18 C         145.1931  141.0745  162.9916 C.3     1  UNL1        0.0721
     19 C         145.5721  142.1589  163.9562 C.3     1  UNL1        0.0173
     20 C         143.9870  144.2086  164.1450 C.3     1  UNL1        0.0000
     21 C         144.5058  142.9127  164.6941 C.3     1  UNL1        0.0014
     22 C         140.3647  142.2613  165.6456 C.3     1  UNL1        0.0754
     23 C         141.0268  142.4630  166.9764 C.ar    1  UNL1       -0.0160
     24 C         142.4605  142.0658  167.1687 C.ar    1  UNL1       -0.0030
     25 C         143.1225  142.2675  168.4994 C.ar    1  UNL1        0.0111
     26 C         142.3510  142.8665  169.6379 C.ar    1  UNL1        0.0577
     27 CL        143.0131  143.0682  170.9686 Cl      1  UNL1       -0.0822
     28 C         140.9175  143.2637  169.4456 C.ar    1  UNL1        0.0111
     29 C         140.2553  143.0619  168.1148 C.ar    1  UNL1       -0.0030
@<TRIPOS>BOND
     1    20    21    1
     2    21    19    1
     3    19    18    1
     4    18    13    1
     5    13    14    1
     6    14    15    1
     7    15    16    1
     8    16    17    1
     9    17    12    1
    10    12     1    1
    11     1     2   ar
    12     2     3   ar
    13     3    22    1
    14    22    23    1
    15    23    24   ar
    16    24    25   ar
    17    25    26   ar
    18    26    27    1
    19    26    28   ar
    20    28    29   ar
    21     3     4   ar
    22     4     5   ar
    23     5     6   ar
    24     6     7   ar
    25     7     8   ar
    26     8     9   ar
    27     9    10   ar
    28    10    11    2
    29    17    13    1
    30    10     1   ar
    31    29    23   ar
    32     9     4   ar
@<TRIPOS>MOLECULE
*****
 29 32 0 0 0
SMALL
GASTEIGER

@<TRIPOS>ATOM
      1 N         142.7209  141.1235  166.0291 N.ar    1  UNL1       -0.2155
      2 N         141.7282  140.1457  165.4737 N.ar    1  UNL1       -0.1693
      3 C         140.5518  139.7197  166.3008 C.ar    1  UNL1        0.1007
      4 C         140.3679  140.2714  167.6836 C.ar    1  UNL1        0.1014
      5 N         139.1914  139.8453  168.5107 N.ar    1  UNL1       -0.2424
      6 C         139.0075  140.3971  169.8934 C.ar    1  UNL1        0.0989
      7 C         140.0002  141.3749  170.4488 C.ar    1  UNL1        0.0208
      8 C         141.1767  141.8009  169.6217 C.ar    1  UNL1        0.0079
      9 C         141.3605  141.2492  168.2390 C.ar    1  UNL1        0.0764
     10 C         142.5371  141.6752  167.4117 C.ar    1  UNL1        0.2778
     11 O         143.5298  142.6530  167.9672 O.2     1  UNL1       -0.2655
     12 C         143.8975  141.5495  165.2018 C.3     1  UNL1        0.1465
     13 N         143.3133  142.5593  162.7969 N.3     1  UNL1       -0.2721
     14 C         143.3186  143.9325  162.1933 C.3     1  UNL1        0.0722
     15 C         143.7661  144.9008  163.2480 C.3     1  UNL1        0.0188
     16 C         144.0375  144.1259  164.5034 C.3     1  UNL1        0.0194
     17 C         143.7576  142.6788  164.2246 C.3     1  UNL1        0.0821
     18 C         142.9309  141.2896  162.0958 C.3     1  UNL1        0.0721
     19 C         143.9767  140.2603  161.7845 C.3     1  UNL1        0.0173
     20 C         142.6953  138.1484  162.5889 C.3     1  UNL1        0.0000
     21 C         143.9657  138.9406  162.4973 C.3     1  UNL1        0.0014
     22 C         139.5591  138.7419  165.7454 C.3     1  UNL1        0.0754
     23 C         138.9575  138.9716  164.3907 C.ar    1  UNL1       -0.0160
     24 C         139.0114  137.8899  163.3528 C.ar    1  UNL1       -0.0030
     25 C         138.4098  138.1196  161.9981 C.ar    1  UNL1        0.0111
     26 C         137.7543  139.4311  161.6812 C.ar    1  UNL1        0.0577
     27 CL        137.1527  139.6608  160.3265 Cl      1  UNL1       -0.0822
     28 C         137.7004  140.5128  162.7189 C.ar    1  UNL1        0.0111
     29 C         138.3020  140.2831  164.0737 C.ar    1  UNL1       -0.0030
@<TRIPOS>BOND
     1    20    21    1
     2    21    19    1
     3    19    18    1
     4    18    13    1
     5    13    14    1
     6    14    15    1
     7    15    16    1
     8    16    17    1
     9    17    12    1
    10    12     1    1
    11     1     2   ar
    12     2     3   ar
    13     3    22    1
    14    22    23    1
    15    23    24   ar
    16    24    25   ar
    17    25    26   ar
    18    26    27    1
    19    26    28   ar
    20    28    29   ar
    21     3     4   ar
    22     4     5   ar
    23     5     6   ar
    24     6     7   ar
    25     7     8   ar
    26     8     9   ar
    27     9    10   ar
    28    10    11    2
    29    17    13    1
    30    10     1   ar
    31    29    23   ar
    32     9     4   ar
@<TRIPOS>MOLECULE
*****
 29 32 0 0 0
SMALL
GASTEIGER

@<TRIPOS>ATOM
      1 N         142.6596  140.1505  165.6694 N.ar    1  UNL1       -0.2155
      2 N         141.8164  141.3606  165.3965 N.ar    1  UNL1       -0.1693
      3 C         141.0075  141.9755  166.4999 C.ar    1  UNL1        0.1007
      4 C         141.0420  141.3803  167.8764 C.ar    1  UNL1        0.1014
      5 N         140.2331  141.9952  168.9799 N.ar    1  UNL1       -0.2424
      6 C         140.2676  141.4000  170.3562 C.ar    1  UNL1        0.0989
      7 C         141.1109  140.1899  170.6292 C.ar    1  UNL1        0.0208
      8 C         141.9197  139.5750  169.5258 C.ar    1  UNL1        0.0079
      9 C         141.8852  140.1702  168.1494 C.ar    1  UNL1        0.0764
     10 C         142.6941  139.5553  167.0458 C.ar    1  UNL1        0.2778
     11 O         143.5373  138.3452  167.3188 O.2     1  UNL1       -0.2655
     12 C         143.4685  139.5355  164.5659 C.3     1  UNL1        0.1465
     13 N         141.7462  138.0001  163.2165 N.3     1  UNL1       -0.2721
     14 C         141.3514  137.8625  161.7760 C.3     1  UNL1        0.0722
     15 C         142.1539  138.8481  160.9792 C.3     1  UNL1        0.0188
     16 C         143.0446  139.5947  161.9274 C.3     1  UNL1        0.0194
     17 C         142.7926  139.0707  163.3101 C.3     1  UNL1        0.0821
     18 C         141.1918  137.2065  164.3623 C.3     1  UNL1        0.0721
     19 C         139.8188  137.5057  164.8872 C.3     1  UNL1        0.0173
     20 C         138.4242  139.4087  165.9750 C.3     1  UNL1        0.0000
     21 C         139.2951  138.9110  164.8597 C.3     1  UNL1        0.0014
     22 C         140.1643  143.1856  166.2270 C.3     1  UNL1        0.0754
     23 C         140.1545  143.7999  164.8586 C.ar    1  UNL1       -0.0160
     24 C         138.9252  143.7078  164.0038 C.ar    1  UNL1       -0.0030
     25 C         138.9155  144.3220  162.6354 C.ar    1  UNL1        0.0111
     26 C         140.1350  145.0283  162.1217 C.ar    1  UNL1        0.0577
     27 CL        140.1253  145.6425  160.7533 Cl      1  UNL1       -0.0822
     28 C         141.3642  145.1204  162.9763 C.ar    1  UNL1        0.0111
     29 C         141.3740  144.5062  164.3448 C.ar    1  UNL1       -0.0030
@<TRIPOS>BOND
     1    20    21    1
     2    21    19    1
     3    19    18    1
     4    18    13    1
     5    13    14    1
     6    14    15    1
     7    15    16    1
     8    16    17    1
     9    17    12    1
    10    12     1    1
    11     1     2   ar
    12     2     3   ar
    13     3    22    1
    14    22    23    1
    15    23    24   ar
    16    24    25   ar
    17    25    26   ar
    18    26    27    1
    19    26    28   ar
    20    28    29   ar
    21     3     4   ar
    22     4     5   ar
    23     5     6   ar
    24     6     7   ar
    25     7     8   ar
    26     8     9   ar
    27     9    10   ar
    28    10    11    2
    29    17    13    1
    30    10     1   ar
    31    29    23   ar
    32     9     4   ar
@<TRIPOS>MOLECULE
*****
 29 32 0 0 0
SMALL
GASTEIGER

@<TRIPOS>ATOM
      1 N         142.2868  141.8508  166.3107 N.ar    1  UNL1       -0.2155
      2 N         141.0745  141.0890  165.8635 N.ar    1  UNL1       -0.1693
      3 C         140.1778  140.4436  166.8780 C.ar    1  UNL1        0.1007
      4 C         140.4933  140.5600  168.3398 C.ar    1  UNL1        0.1014
      5 N         139.5966  139.9146  169.3544 N.ar    1  UNL1       -0.2424
      6 C         139.9121  140.0310  170.8161 C.ar    1  UNL1        0.0989
      7 C         141.1244  140.7928  171.2634 C.ar    1  UNL1        0.0208
      8 C         142.0212  141.4381  170.2489 C.ar    1  UNL1        0.0079
      9 C         141.7056  141.3218  168.7871 C.ar    1  UNL1        0.0764
     10 C         142.6024  141.9671  167.7725 C.ar    1  UNL1        0.2778
     11 O         143.8147  142.7289  168.2197 O.2     1  UNL1       -0.2655
     12 C         143.1836  142.4961  165.2961 C.3     1  UNL1        0.1465
     13 N         143.2143  141.0578  163.0434 N.3     1  UNL1       -0.2721
     14 C         142.7965  141.3015  161.6235 C.3     1  UNL1        0.0722
     15 C         142.2469  142.6944  161.5346 C.3     1  UNL1        0.0188
     16 C         142.3250  143.3114  162.8996 C.3     1  UNL1        0.0194
     17 C         142.9229  142.2999  163.8320 C.3     1  UNL1        0.0821
     18 C         143.8176  139.7937  163.5802 C.3     1  UNL1        0.0721
     19 C         142.9562  138.5852  163.7985 C.3     1  UNL1        0.0173
     20 C         143.5233  138.3734  166.3250 C.3     1  UNL1        0.0000
     21 C         142.5608  138.1874  165.1897 C.3     1  UNL1        0.0014
     22 C         138.9655  139.6819  166.4307 C.3     1  UNL1        0.0754
     23 C         138.5898  139.6553  164.9788 C.ar    1  UNL1       -0.0160
     24 C         138.8605  138.4304  164.1563 C.ar    1  UNL1       -0.0030
     25 C         138.4849  138.4039  162.7044 C.ar    1  UNL1        0.0111
     26 C         137.8385  139.6022  162.0749 C.ar    1  UNL1        0.0577
     27 CL        137.4629  139.5756  160.6229 Cl      1  UNL1       -0.0822
     28 C         137.5678  140.8270  162.8973 C.ar    1  UNL1        0.0111
     29 C         137.9434  140.8536  164.3493 C.ar    1  UNL1       -0.0030
@<TRIPOS>BOND
     1    20    21    1
     2    21    19    1
     3    19    18    1
     4    18    13    1
     5    13    14    1
     6    14    15    1
     7    15    16    1
     8    16    17    1
     9    17    12    1
    10    12     1    1
    11     1     2   ar
    12     2     3   ar
    13     3    22    1
    14    22    23    1
    15    23    24   ar
    16    24    25   ar
    17    25    26   ar
    18    26    27    1
    19    26    28   ar
    20    28    29   ar
    21     3     4   ar
    22     4     5   ar
    23     5     6   ar
    24     6     7   ar
    25     7     8   ar
    26     8     9   ar
    27     9    10   ar
    28    10    11    2
    29    17    13    1
    30    10     1   ar
    31    29    23   ar
    32     9     4   ar
@<TRIPOS>MOLECULE
*****
 29 32 0 0 0
SMALL
GASTEIGER

@<TRIPOS>ATOM
      1 N         139.5598  140.2160  166.8825 N.ar    1  UNL1       -0.2155
      2 N         140.5847  140.9178  166.0416 N.ar    1  UNL1       -0.1693
      3 C         141.6697  141.7206  166.6961 C.ar    1  UNL1        0.1007
      4 C         141.7299  141.8215  168.1915 C.ar    1  UNL1        0.1014
      5 N         142.8149  142.6242  168.8460 N.ar    1  UNL1       -0.2424
      6 C         142.8751  142.7251  170.3413 C.ar    1  UNL1        0.0989
      7 C         141.8502  142.0233  171.1822 C.ar    1  UNL1        0.0208
      8 C         140.7652  141.2206  170.5278 C.ar    1  UNL1        0.0079
      9 C         140.7050  141.1197  169.0324 C.ar    1  UNL1        0.0764
     10 C         139.6200  140.3170  168.3779 C.ar    1  UNL1        0.2778
     11 O         138.5951  139.6152  169.2188 O.2     1  UNL1       -0.2655
     12 C         138.4748  139.4133  166.2280 C.3     1  UNL1        0.1465
     13 N         138.1776  139.9287  163.6221 N.3     1  UNL1       -0.2721
     14 C         138.4526  139.1762  162.3539 C.3     1  UNL1        0.0722
     15 C         139.0236  137.8390  162.7229 C.3     1  UNL1        0.0188
     16 C         139.1013  137.7651  164.2190 C.3     1  UNL1        0.0194
     17 C         138.5785  139.0566  164.7747 C.3     1  UNL1        0.0821
     18 C         137.6025  141.3106  163.7202 C.3     1  UNL1        0.0721
     19 C         138.4950  142.5068  163.5702 C.3     1  UNL1        0.0173
     20 C         139.1553  144.2370  165.3923 C.3     1  UNL1        0.0000
     21 C         138.2014  143.7624  164.3364 C.3     1  UNL1        0.0014
     22 C         142.6946  142.4224  165.8552 C.3     1  UNL1        0.0754
     23 C         143.0277  141.9014  164.4886 C.ar    1  UNL1       -0.0160
     24 C         144.0285  140.7951  164.3310 C.ar    1  UNL1       -0.0030
     25 C         144.3616  140.2742  162.9645 C.ar    1  UNL1        0.0111
     26 C         143.6941  140.8595  161.7554 C.ar    1  UNL1        0.0577
     27 CL        144.0273  140.3385  160.3888 Cl      1  UNL1       -0.0822
     28 C         142.6934  141.9657  161.9129 C.ar    1  UNL1        0.0111
     29 C         142.3602  142.4867  163.2795 C.ar    1  UNL1       -0.0030
@<TRIPOS>BOND
     1    20    21    1
     2    21    19    1
     3    19    18    1
     4    18    13    1
     5    13    14    1
     6    14    15    1
     7    15    16    1
     8    16    17    1
     9    17    12    1
    10    12     1    1
    11     1     2   ar
    12     2     3   ar
    13     3    22    1
    14    22    23    1
    15    23    24   ar
    16    24    25   ar
    17    25    26   ar
    18    26    27    1
    19    26    28   ar
    20    28    29   ar
    21     3     4   ar
    22     4     5   ar
    23     5     6   ar
    24     6     7   ar
    25     7     8   ar
    26     8     9   ar
    27     9    10   ar
    28    10    11    2
    29    17    13    1
    30    10     1   ar
    31    29    23   ar
    32     9     4   ar
