@<TRIPOS>MOLECULE
*****
 37 42 0 0 0
SMALL
GASTEIGER

@<TRIPOS>ATOM
      1 C         139.7378  139.9502  163.0718 C.ar    1  UNL1       -0.0077
      2 C         140.8814  139.3027  162.3489 C.ar    1  UNL1        0.0159
      3 C         140.7702  139.0057  160.8827 C.ar    1  UNL1        0.0854
      4 N         141.9138  138.3582  160.1598 N.ar    1  UNL1       -0.2136
      5 C         141.8026  138.0613  158.6937 C.ar    1  UNL1        0.2208
      6 N         140.5476  138.4119  157.9506 N.ar    1  UNL1       -0.2120
      7 C         139.4040  139.0595  158.6735 C.ar    1  UNL1        0.1033
      8 C         139.5153  139.3564  160.1396 C.ar    1  UNL1        0.0378
      9 C         138.3716  140.0040  160.8626 C.ar    1  UNL1        0.0141
     10 C         138.4828  140.3008  162.3287 C.ar    1  UNL1        0.0539
     11 CL        137.3392  140.9484  163.0517 Cl      1  UNL1       -0.0826
     12 F         138.5494  138.0634  165.0787 F       1  UNL1       -0.2354
     13 C         139.2548  139.3037  165.5414 C.3     1  UNL1        0.1808
     14 C         139.3660  139.6006  167.0075 C.3     1  UNL1        0.1082
     15 N         140.0714  140.8409  167.4702 N.3     1  UNL1       -0.2671
     16 C         140.6656  141.7843  166.4667 C.3     1  UNL1        0.0727
     17 C         140.5544  141.4874  165.0006 C.3     1  UNL1        0.0245
     18 C         139.8490  140.2471  164.5380 C.3     1  UNL1        0.0586
     19 C         140.1826  141.1378  168.9363 C.3     1  UNL1        0.1228
     20 C         140.2862  140.1230  170.0360 C.3     1  UNL1        0.1610
     21 O         140.3774  140.8596  171.3395 O.3     1  UNL1       -0.3493
     22 C         140.3301  142.3298  171.0454 C.3     1  UNL1        0.1788
     23 C         140.2097  142.5017  169.5601 C.3     1  UNL1        0.2072
     24 F         140.1304  143.8081  168.8274 F       1  UNL1       -0.2330
     25 N         142.9463  137.4137  157.9707 N.pl3   1  UNL1       -0.2794
     26 H         143.8670  137.7255  158.1265 H       1  UNL1        0.1552
     27 C         142.6871  136.2911  157.0102 C.ar    1  UNL1        0.1001
     28 C         141.9682  136.4014  155.6983 C.ar    1  UNL1        0.1372
     29 N         141.9381  135.0396  155.0702 N.ar    1  UNL1       -0.1654
     30 N         142.6383  134.0875  155.9940 N.ar    1  UNL1       -0.2353
     31 C         143.1012  134.8610  157.1929 C.ar    1  UNL1        0.1499
     32 CL        143.8472  134.3025  158.3683 Cl      1  UNL1       -0.0603
     33 C         142.8402  132.6197  155.7600 C.3     1  UNL1        0.1725
     34 C         142.2824  131.2702  155.4169 C.3     1  UNL1        0.0986
     35 C         143.7475  131.4269  155.6976 C.3     1  UNL1        0.2863
     36 F         144.2007  130.0086  155.5159 F       1  UNL1       -0.2022
     37 F         145.0553  132.0763  156.0415 F       1  UNL1       -0.2022
@<TRIPOS>BOND
     1    12    13    1
     2    13    14    1
     3    14    15    1
     4    15    19    1
     5    19    20    1
     6    20    21    1
     7    21    22    1
     8    22    23    1
     9    23    24    1
    10    15    16    1
    11    16    17    1
    12    17    18    1
    13    18     1    1
    14     1     2   ar
    15     2     3   ar
    16     3     4   ar
    17     4     5   ar
    18     5    25    1
    19    25    27    1
    20    27    28   ar
    21    28    29   ar
    22    29    30   ar
    23    30    33    1
    24    33    34    1
    25    34    35    1
    26    35    36    1
    27    35    37    1
    28    30    31   ar
    29    31    32    1
    30     5     6   ar
    31     6     7   ar
    32     7     8   ar
    33     8     9   ar
    34     9    10   ar
    35    10    11    1
    36    18    13    1
    37    10     1   ar
    38    23    19    1
    39     8     3   ar
    40    31    27   ar
    41    35    33    1
    42    25    26    1
@<TRIPOS>MOLECULE
*****
 37 42 0 0 0
SMALL
GASTEIGER

@<TRIPOS>ATOM
      1 C         142.1984  139.7051  163.4670 C.ar    1  UNL1       -0.0077
      2 C         142.7354  140.7676  162.5544 C.ar    1  UNL1        0.0159
      3 C         143.0509  140.4394  161.1251 C.ar    1  UNL1        0.0854
      4 N         143.5878  141.5018  160.2126 N.ar    1  UNL1       -0.2136
      5 C         143.9033  141.1736  158.7834 C.ar    1  UNL1        0.2208
      6 N         143.6818  139.7829  158.2667 N.ar    1  UNL1       -0.2120
      7 C         143.1449  138.7205  159.1793 C.ar    1  UNL1        0.1033
      8 C         142.8294  139.0487  160.6085 C.ar    1  UNL1        0.0378
      9 C         142.2924  137.9862  161.5211 C.ar    1  UNL1        0.0141
     10 C         141.9770  138.3144  162.9503 C.ar    1  UNL1        0.0539
     11 CL        141.4400  137.2519  163.8630 Cl      1  UNL1       -0.0826
     12 F         144.1142  138.9306  165.6419 F       1  UNL1       -0.2354
     13 C         142.8408  139.6461  165.9837 C.3     1  UNL1        0.1808
     14 C         142.5254  139.9742  167.4130 C.3     1  UNL1        0.1082
     15 N         141.2521  140.6896  167.7548 N.3     1  UNL1       -0.2671
     16 C         140.2942  141.0768  166.6673 C.3     1  UNL1        0.0727
     17 C         140.6096  140.7487  165.2381 C.3     1  UNL1        0.0245
     18 C         141.8829  140.0333  164.8963 C.3     1  UNL1        0.0586
     19 C         140.9366  141.0178  169.1841 C.3     1  UNL1        0.1228
     20 C         140.9543  140.0552  170.3343 C.3     1  UNL1        0.1610
     21 O         140.5767  140.8086  171.5752 O.3     1  UNL1       -0.3493
     22 C         140.3255  142.2369  171.1918 C.3     1  UNL1        0.1788
     23 C         140.5479  142.3661  169.7140 C.3     1  UNL1        0.2072
     24 F         140.4065  143.6231  168.9078 F       1  UNL1       -0.2330
     25 N         144.4403  142.2361  157.8707 N.pl3   1  UNL1       -0.2794
     26 H         144.1636  143.1734  157.9900 H       1  UNL1        0.1552
     27 C         145.3987  141.8705  156.7763 C.ar    1  UNL1        0.1001
     28 C         145.0820  141.0404  155.5678 C.ar    1  UNL1        0.1372
     29 N         146.3298  140.9277  154.7429 N.ar    1  UNL1       -0.1654
     30 N         147.4176  141.6881  155.4416 N.ar    1  UNL1       -0.2353
     31 C         146.8422  142.2708  156.6984 C.ar    1  UNL1        0.1499
     32 CL        147.5807  143.1070  157.7011 Cl      1  UNL1       -0.0603
     33 C         148.8325  141.8393  154.9670 C.3     1  UNL1        0.1725
     34 C         150.2903  141.5130  155.1032 C.3     1  UNL1        0.0986
     35 C         149.8254  142.4274  154.0087 C.3     1  UNL1        0.2863
     36 F         151.1381  142.7350  153.3513 F       1  UNL1       -0.2022
     37 F         148.9047  143.2349  153.1426 F       1  UNL1       -0.2022
@<TRIPOS>BOND
     1    12    13    1
     2    13    14    1
     3    14    15    1
     4    15    19    1
     5    19    20    1
     6    20    21    1
     7    21    22    1
     8    22    23    1
     9    23    24    1
    10    15    16    1
    11    16    17    1
    12    17    18    1
    13    18     1    1
    14     1     2   ar
    15     2     3   ar
    16     3     4   ar
    17     4     5   ar
    18     5    25    1
    19    25    27    1
    20    27    28   ar
    21    28    29   ar
    22    29    30   ar
    23    30    33    1
    24    33    34    1
    25    34    35    1
    26    35    36    1
    27    35    37    1
    28    30    31   ar
    29    31    32    1
    30     5     6   ar
    31     6     7   ar
    32     7     8   ar
    33     8     9   ar
    34     9    10   ar
    35    10    11    1
    36    18    13    1
    37    10     1   ar
    38    23    19    1
    39     8     3   ar
    40    31    27   ar
    41    35    33    1
    42    25    26    1
@<TRIPOS>MOLECULE
*****
 37 42 0 0 0
SMALL
GASTEIGER

@<TRIPOS>ATOM
      1 C         142.3140  142.9248  163.2996 C.ar    1  UNL1       -0.0077
      2 C         143.0304  141.9223  162.4441 C.ar    1  UNL1        0.0159
      3 C         143.1908  142.1698  160.9734 C.ar    1  UNL1        0.0854
      4 N         143.9072  141.1673  160.1179 N.ar    1  UNL1       -0.2136
      5 C         144.0676  141.4148  158.6472 C.ar    1  UNL1        0.2208
      6 N         143.5116  142.6647  158.0320 N.ar    1  UNL1       -0.2120
      7 C         142.7951  143.6672  158.8874 C.ar    1  UNL1        0.1033
      8 C         142.6348  143.4197  160.3581 C.ar    1  UNL1        0.0378
      9 C         141.9183  144.4222  161.2136 C.ar    1  UNL1        0.0141
     10 C         141.7580  144.1747  162.6843 C.ar    1  UNL1        0.0539
     11 CL        141.0415  145.1772  163.5399 Cl      1  UNL1       -0.0826
     12 F         144.7138  142.9725  165.0992 F       1  UNL1       -0.2354
     13 C         143.3535  142.7012  165.6702 C.3     1  UNL1        0.1808
     14 C         143.1932  142.4538  167.1409 C.3     1  UNL1        0.1082
     15 N         141.8329  142.1825  167.7118 N.3     1  UNL1       -0.2671
     16 C         140.6330  142.1586  166.8120 C.3     1  UNL1        0.0727
     17 C         140.7933  142.4060  165.3413 C.3     1  UNL1        0.0245
     18 C         142.1536  142.6773  164.7704 C.3     1  UNL1        0.0586
     19 C         141.6725  141.9350  169.1826 C.3     1  UNL1        0.1228
     20 C         142.1972  142.8058  170.2855 C.3     1  UNL1        0.1610
     21 O         141.8083  142.1824  171.5932 O.3     1  UNL1       -0.3493
     22 C         141.0431  140.9263  171.2984 C.3     1  UNL1        0.1788
     23 C         140.9592  140.7734  169.8086 C.3     1  UNL1        0.2072
     24 F         140.2810  139.6553  169.0738 F       1  UNL1       -0.2330
     25 N         144.7840  140.4123  157.7917 N.pl3   1  UNL1       -0.2794
     26 H         144.9321  139.4977  158.1244 H       1  UNL1        0.1552
     27 C         145.2748  140.8036  156.4293 C.ar    1  UNL1        0.1001
     28 C         144.7956  140.2405  155.1242 C.ar    1  UNL1        0.1372
     29 N         145.5556  140.9155  154.0212 N.ar    1  UNL1       -0.1654
     30 N         146.5047  141.8957  154.6445 N.ar    1  UNL1       -0.2353
     31 C         146.3311  141.8265  156.1328 C.ar    1  UNL1        0.1499
     32 CL        147.0820  142.6379  157.1467 Cl      1  UNL1       -0.0603
     33 C         147.4596  142.7884  153.9088 C.3     1  UNL1        0.1725
     34 C         147.7081  143.9343  152.9733 C.3     1  UNL1        0.0986
     35 C         148.8649  143.1886  153.5699 C.3     1  UNL1        0.2863
     36 F         150.0061  143.9382  152.9489 F       1  UNL1       -0.2022
     37 F         149.6253  142.1825  154.3821 F       1  UNL1       -0.2022
@<TRIPOS>BOND
     1    12    13    1
     2    13    14    1
     3    14    15    1
     4    15    19    1
     5    19    20    1
     6    20    21    1
     7    21    22    1
     8    22    23    1
     9    23    24    1
    10    15    16    1
    11    16    17    1
    12    17    18    1
    13    18     1    1
    14     1     2   ar
    15     2     3   ar
    16     3     4   ar
    17     4     5   ar
    18     5    25    1
    19    25    27    1
    20    27    28   ar
    21    28    29   ar
    22    29    30   ar
    23    30    33    1
    24    33    34    1
    25    34    35    1
    26    35    36    1
    27    35    37    1
    28    30    31   ar
    29    31    32    1
    30     5     6   ar
    31     6     7   ar
    32     7     8   ar
    33     8     9   ar
    34     9    10   ar
    35    10    11    1
    36    18    13    1
    37    10     1   ar
    38    23    19    1
    39     8     3   ar
    40    31    27   ar
    41    35    33    1
    42    25    26    1
@<TRIPOS>MOLECULE
*****
 37 42 0 0 0
SMALL
GASTEIGER

@<TRIPOS>ATOM
      1 C         143.0188  141.7084  163.3510 C.ar    1  UNL1       -0.0077
      2 C         142.5090  141.0277  162.1154 C.ar    1  UNL1        0.0159
      3 C         143.1060  141.3544  160.7786 C.ar    1  UNL1        0.0854
      4 N         142.5962  140.6737  159.5430 N.ar    1  UNL1       -0.2136
      5 C         143.1932  141.0005  158.2063 C.ar    1  UNL1        0.2208
      6 N         144.2999  142.0079  158.1052 N.ar    1  UNL1       -0.2120
      7 C         144.8097  142.6886  159.3408 C.ar    1  UNL1        0.1033
      8 C         144.2127  142.3618  160.6775 C.ar    1  UNL1        0.0378
      9 C         144.7225  143.0425  161.9132 C.ar    1  UNL1        0.0141
     10 C         144.1255  142.7158  163.2499 C.ar    1  UNL1        0.0539
     11 CL        144.6353  143.3965  164.4856 Cl      1  UNL1       -0.0826
     12 F         144.1920  139.5093  165.0206 F       1  UNL1       -0.2354
     13 C         143.0084  140.2821  165.5226 C.3     1  UNL1        0.1808
     14 C         142.4115  139.9554  166.8593 C.3     1  UNL1        0.1082
     15 N         141.2280  140.7282  167.3613 N.3     1  UNL1       -0.2671
     16 C         140.6414  141.8277  166.5265 C.3     1  UNL1        0.0727
     17 C         141.2383  142.1545  165.1897 C.3     1  UNL1        0.0245
     18 C         142.4218  141.3816  164.6878 C.3     1  UNL1        0.0586
     19 C         140.6310  140.4014  168.6981 C.3     1  UNL1        0.1228
     20 C         139.1793  140.1465  168.9768 C.3     1  UNL1        0.1610
     21 O         139.0320  139.8598  170.4418 O.3     1  UNL1       -0.3493
     22 C         140.3927  139.9376  171.0684 C.3     1  UNL1        0.1788
     23 C         141.3809  140.2723  169.9907 C.3     1  UNL1        0.2072
     24 F         142.8593  140.4472  170.1737 F       1  UNL1       -0.2330
     25 N         142.6834  140.3198  156.9706 N.pl3   1  UNL1       -0.2794
     26 H         141.9469  140.7216  156.4555 H       1  UNL1        0.1552
     27 C         143.2958  139.0268  156.5198 C.ar    1  UNL1        0.1001
     28 C         144.5077  138.8819  155.6478 C.ar    1  UNL1        0.1372
     29 N         144.7647  137.4173  155.4509 N.ar    1  UNL1       -0.1654
     30 N         143.7117  136.6569  156.2012 N.ar    1  UNL1       -0.2353
     31 C         142.8039  137.6517  156.8618 C.ar    1  UNL1        0.1499
     32 CL        141.6131  137.3280  157.7147 Cl      1  UNL1       -0.0603
     33 C         143.5882  135.1640  156.2775 C.3     1  UNL1        0.1725
     34 C         143.4714  133.8336  155.5946 C.3     1  UNL1        0.0986
     35 C         143.4910  133.9085  157.0926 C.3     1  UNL1        0.2863
     36 F         143.3727  132.4513  157.4278 F       1  UNL1       -0.2022
     37 F         143.5516  134.4896  158.4742 F       1  UNL1       -0.2022
@<TRIPOS>BOND
     1    12    13    1
     2    13    14    1
     3    14    15    1
     4    15    19    1
     5    19    20    1
     6    20    21    1
     7    21    22    1
     8    22    23    1
     9    23    24    1
    10    15    16    1
    11    16    17    1
    12    17    18    1
    13    18     1    1
    14     1     2   ar
    15     2     3   ar
    16     3     4   ar
    17     4     5   ar
    18     5    25    1
    19    25    27    1
    20    27    28   ar
    21    28    29   ar
    22    29    30   ar
    23    30    33    1
    24    33    34    1
    25    34    35    1
    26    35    36    1
    27    35    37    1
    28    30    31   ar
    29    31    32    1
    30     5     6   ar
    31     6     7   ar
    32     7     8   ar
    33     8     9   ar
    34     9    10   ar
    35    10    11    1
    36    18    13    1
    37    10     1   ar
    38    23    19    1
    39     8     3   ar
    40    31    27   ar
    41    35    33    1
    42    25    26    1
@<TRIPOS>MOLECULE
*****
 37 42 0 0 0
SMALL
GASTEIGER

@<TRIPOS>ATOM
      1 C         141.5754  142.7560  163.3080 C.ar    1  UNL1       -0.0077
      2 C         141.0917  141.6265  162.4476 C.ar    1  UNL1        0.0159
      3 C         141.1314  141.7517  160.9533 C.ar    1  UNL1        0.0854
      4 N         140.6477  140.6222  160.0930 N.ar    1  UNL1       -0.2136
      5 C         140.6875  140.7474  158.5988 C.ar    1  UNL1        0.2208
      6 N         141.2110  142.0020  157.9649 N.ar    1  UNL1       -0.2120
      7 C         141.6947  143.1315  158.8253 C.ar    1  UNL1        0.1033
      8 C         141.6550  143.0063  160.3195 C.ar    1  UNL1        0.0378
      9 C         142.1387  144.1358  161.1799 C.ar    1  UNL1        0.0141
     10 C         142.0990  144.0106  162.6741 C.ar    1  UNL1        0.0539
     11 CL        142.5827  145.1401  163.5345 Cl      1  UNL1       -0.0826
     12 F         139.1466  143.6516  164.8241 F       1  UNL1       -0.2354
     13 C         140.3212  143.0786  165.5603 C.3     1  UNL1        0.1808
     14 C         140.2814  142.9535  167.0545 C.3     1  UNL1        0.1082
     15 N         141.4561  142.3806  167.7907 N.3     1  UNL1       -0.2671
     16 C         142.6705  141.9328  167.0326 C.3     1  UNL1        0.0727
     17 C         142.7103  142.0580  165.5384 C.3     1  UNL1        0.0245
     18 C         141.5357  142.6309  164.8023 C.3     1  UNL1        0.0586
     19 C         141.4163  142.2555  169.2850 C.3     1  UNL1        0.1228
     20 C         142.4522  142.7691  170.2406 C.3     1  UNL1        0.1610
     21 O         142.0099  142.4259  171.6322 O.3     1  UNL1       -0.3493
     22 C         140.7006  141.7001  171.5366 C.3     1  UNL1        0.1788
     23 C         140.3338  141.5948  170.0859 C.3     1  UNL1        0.2072
     24 F         139.1009  140.9432  169.5333 F       1  UNL1       -0.2330
     25 N         140.2037  139.6179  157.7383 N.pl3   1  UNL1       -0.2794
     26 H         139.2842  139.6259  157.3866 H       1  UNL1        0.1552
     27 C         141.1209  138.4761  157.4139 C.ar    1  UNL1        0.1001
     28 C         142.5499  138.3419  157.8498 C.ar    1  UNL1        0.1372
     29 N         143.0823  137.0510  157.3019 N.ar    1  UNL1       -0.1654
     30 N         141.9824  136.3874  156.5275 N.ar    1  UNL1       -0.2353
     31 C         140.7702  137.2682  156.5967 C.ar    1  UNL1        0.1499
     32 CL        139.4407  136.9899  155.9603 Cl      1  UNL1       -0.0603
     33 C         142.0778  135.0737  155.8098 C.3     1  UNL1        0.1725
     34 C         141.4435  133.9991  154.9774 C.3     1  UNL1        0.0986
     35 C         142.8775  133.8730  155.3990 C.3     1  UNL1        0.2863
     36 F         143.2205  132.5574  154.7653 F       1  UNL1       -0.2022
     37 F         144.1924  134.2038  156.0406 F       1  UNL1       -0.2022
@<TRIPOS>BOND
     1    12    13    1
     2    13    14    1
     3    14    15    1
     4    15    19    1
     5    19    20    1
     6    20    21    1
     7    21    22    1
     8    22    23    1
     9    23    24    1
    10    15    16    1
    11    16    17    1
    12    17    18    1
    13    18     1    1
    14     1     2   ar
    15     2     3   ar
    16     3     4   ar
    17     4     5   ar
    18     5    25    1
    19    25    27    1
    20    27    28   ar
    21    28    29   ar
    22    29    30   ar
    23    30    33    1
    24    33    34    1
    25    34    35    1
    26    35    36    1
    27    35    37    1
    28    30    31   ar
    29    31    32    1
    30     5     6   ar
    31     6     7   ar
    32     7     8   ar
    33     8     9   ar
    34     9    10   ar
    35    10    11    1
    36    18    13    1
    37    10     1   ar
    38    23    19    1
    39     8     3   ar
    40    31    27   ar
    41    35    33    1
    42    25    26    1
@<TRIPOS>MOLECULE
*****
 37 42 0 0 0
SMALL
GASTEIGER

@<TRIPOS>ATOM
      1 C         141.1526  143.4410  163.0694 C.ar    1  UNL1       -0.0077
      2 C         141.9852  143.0051  161.9004 C.ar    1  UNL1        0.0159
      3 C         141.9019  143.7500  160.6010 C.ar    1  UNL1        0.0854
      4 N         142.7346  143.3141  159.4319 N.ar    1  UNL1       -0.2136
      5 C         142.6513  144.0589  158.1326 C.ar    1  UNL1        0.2208
      6 N         141.7353  145.2395  158.0023 N.ar    1  UNL1       -0.2120
      7 C         140.9026  145.6754  159.1713 C.ar    1  UNL1        0.1033
      8 C         140.9860  144.9306  160.4706 C.ar    1  UNL1        0.0378
      9 C         140.1533  145.3665  161.6397 C.ar    1  UNL1        0.0141
     10 C         140.2366  144.6217  162.9391 C.ar    1  UNL1        0.0539
     11 CL        139.4039  145.0576  164.1082 Cl      1  UNL1       -0.0826
     12 F         143.5048  143.8516  164.8855 F       1  UNL1       -0.2354
     13 C         142.4120  142.9015  165.2769 C.3     1  UNL1        0.1808
     14 C         142.4953  142.1568  166.5762 C.3     1  UNL1        0.1082
     15 N         141.4025  141.2067  166.9675 N.3     1  UNL1       -0.2671
     16 C         140.2264  141.0014  166.0594 C.3     1  UNL1        0.0727
     17 C         140.1430  141.7462  164.7601 C.3     1  UNL1        0.0245
     18 C         141.2359  142.6962  164.3688 C.3     1  UNL1        0.0586
     19 C         141.4858  140.4619  168.2669 C.3     1  UNL1        0.1228
     20 C         142.5418  139.4665  168.6465 C.3     1  UNL1        0.1610
     21 O         142.2364  138.9711  170.0290 O.3     1  UNL1       -0.3493
     22 C         140.9916  139.6604  170.5039 C.3     1  UNL1        0.1788
     23 C         140.5278  140.5818  169.4149 C.3     1  UNL1        0.2072
     24 F         139.3182  141.4675  169.4650 F       1  UNL1       -0.2330
     25 N         143.4840  143.6230  156.9635 N.pl3   1  UNL1       -0.2794
     26 H         143.7594  144.2793  156.2834 H       1  UNL1        0.1552
     27 C         143.8970  142.1871  156.8307 C.ar    1  UNL1        0.1001
     28 C         145.2960  141.6580  156.9441 C.ar    1  UNL1        0.1372
     29 N         145.2472  140.1721  156.7448 N.ar    1  UNL1       -0.1654
     30 N         143.8180  139.7829  156.5081 N.ar    1  UNL1       -0.2353
     31 C         142.9836  141.0282  156.5613 C.ar    1  UNL1        0.1499
     32 CL        141.4967  141.1017  156.3773 Cl      1  UNL1       -0.0603
     33 C         143.3121  138.3924  156.2616 C.3     1  UNL1        0.1725
     34 C         142.9919  137.2757  155.3126 C.3     1  UNL1        0.0986
     35 C         142.7559  137.1009  156.7836 C.3     1  UNL1        0.2863
     36 F         142.2166  135.7012  156.7962 F       1  UNL1       -0.2022
     37 F         142.7071  137.4121  158.2502 F       1  UNL1       -0.2022
@<TRIPOS>BOND
     1    12    13    1
     2    13    14    1
     3    14    15    1
     4    15    19    1
     5    19    20    1
     6    20    21    1
     7    21    22    1
     8    22    23    1
     9    23    24    1
    10    15    16    1
    11    16    17    1
    12    17    18    1
    13    18     1    1
    14     1     2   ar
    15     2     3   ar
    16     3     4   ar
    17     4     5   ar
    18     5    25    1
    19    25    27    1
    20    27    28   ar
    21    28    29   ar
    22    29    30   ar
    23    30    33    1
    24    33    34    1
    25    34    35    1
    26    35    36    1
    27    35    37    1
    28    30    31   ar
    29    31    32    1
    30     5     6   ar
    31     6     7   ar
    32     7     8   ar
    33     8     9   ar
    34     9    10   ar
    35    10    11    1
    36    18    13    1
    37    10     1   ar
    38    23    19    1
    39     8     3   ar
    40    31    27   ar
    41    35    33    1
    42    25    26    1
@<TRIPOS>MOLECULE
*****
 37 42 0 0 0
SMALL
GASTEIGER

@<TRIPOS>ATOM
      1 C         141.1971  139.1002  156.9697 C.ar    1  UNL1       -0.0077
      2 C         140.3031  139.4300  158.1281 C.ar    1  UNL1        0.0159
      3 C         140.0122  140.8620  158.4670 C.ar    1  UNL1        0.0854
      4 N         139.1182  141.1918  159.6254 N.ar    1  UNL1       -0.2136
      5 C         138.8273  142.6237  159.9643 C.ar    1  UNL1        0.2208
      6 N         139.4305  143.7259  159.1449 N.ar    1  UNL1       -0.2120
      7 C         140.3245  143.3960  157.9865 C.ar    1  UNL1        0.1033
      8 C         140.6153  141.9641  157.6476 C.ar    1  UNL1        0.0378
      9 C         141.5094  141.6342  156.4891 C.ar    1  UNL1        0.0141
     10 C         141.8003  140.2023  156.1502 C.ar    1  UNL1        0.0539
     11 CL        142.6943  139.8724  154.9918 Cl      1  UNL1       -0.0826
     12 F         143.2483  137.5741  158.5393 F       1  UNL1       -0.2354
     13 C         142.5136  136.9051  157.4155 C.3     1  UNL1        0.1808
     14 C         142.8046  135.4732  157.0766 C.3     1  UNL1        0.1082
     15 N         142.0699  134.8044  155.9529 N.3     1  UNL1       -0.2671
     16 C         141.0444  135.5674  155.1680 C.3     1  UNL1        0.0727
     17 C         140.7534  136.9993  155.5069 C.3     1  UNL1        0.0245
     18 C         141.4881  137.6682  156.6307 C.3     1  UNL1        0.0586
     19 C         142.3609  133.3724  155.6139 C.3     1  UNL1        0.1228
     20 C         142.6157  132.2680  156.5965 C.3     1  UNL1        0.1610
     21 O         142.8604  131.0064  155.8228 O.3     1  UNL1       -0.3493
     22 C         142.7567  131.3312  154.3619 C.3     1  UNL1        0.1788
     23 C         142.4480  132.7934  154.2329 C.3     1  UNL1        0.2072
     24 F         142.2596  133.5446  152.9484 F       1  UNL1       -0.2330
     25 N         137.9333  142.9536  161.1228 N.pl3   1  UNL1       -0.2794
     26 H         137.1513  143.5370  160.9906 H       1  UNL1        0.1552
     27 C         138.2306  142.3946  162.4826 C.ar    1  UNL1        0.1001
     28 C         138.7875  143.1583  163.6473 C.ar    1  UNL1        0.1372
     29 N         138.9244  142.2094  164.8010 N.ar    1  UNL1       -0.1654
     30 N         138.4521  140.8593  164.3493 N.ar    1  UNL1       -0.2353
     31 C         138.0233  140.9737  162.9164 C.ar    1  UNL1        0.1499
     32 CL        137.4822  139.8624  162.0666 Cl      1  UNL1       -0.0603
     33 C         138.4150  139.6134  165.1838 C.3     1  UNL1        0.1725
     34 C         138.2157  138.9449  166.5118 C.3     1  UNL1        0.0986
     35 C         138.5501  138.1242  165.3015 C.3     1  UNL1        0.2863
     36 F         138.5716  136.7548  165.9133 F       1  UNL1       -0.2022
     37 F         138.8769  137.7791  163.8788 F       1  UNL1       -0.2022
@<TRIPOS>BOND
     1    12    13    1
     2    13    14    1
     3    14    15    1
     4    15    19    1
     5    19    20    1
     6    20    21    1
     7    21    22    1
     8    22    23    1
     9    23    24    1
    10    15    16    1
    11    16    17    1
    12    17    18    1
    13    18     1    1
    14     1     2   ar
    15     2     3   ar
    16     3     4   ar
    17     4     5   ar
    18     5    25    1
    19    25    27    1
    20    27    28   ar
    21    28    29   ar
    22    29    30   ar
    23    30    33    1
    24    33    34    1
    25    34    35    1
    26    35    36    1
    27    35    37    1
    28    30    31   ar
    29    31    32    1
    30     5     6   ar
    31     6     7   ar
    32     7     8   ar
    33     8     9   ar
    34     9    10   ar
    35    10    11    1
    36    18    13    1
    37    10     1   ar
    38    23    19    1
    39     8     3   ar
    40    31    27   ar
    41    35    33    1
    42    25    26    1
@<TRIPOS>MOLECULE
*****
 37 42 0 0 0
SMALL
GASTEIGER

@<TRIPOS>ATOM
      1 C         142.9992  141.5388  163.1741 C.ar    1  UNL1       -0.0077
      2 C         142.6840  142.7056  162.2857 C.ar    1  UNL1        0.0159
      3 C         143.0692  142.6704  160.8364 C.ar    1  UNL1        0.0854
      4 N         142.7540  143.8372  159.9481 N.ar    1  UNL1       -0.2136
      5 C         143.1391  143.8020  158.4988 C.ar    1  UNL1        0.2208
      6 N         143.8394  142.5999  157.9379 N.ar    1  UNL1       -0.2120
      7 C         144.1546  141.4331  158.8262 C.ar    1  UNL1        0.1033
      8 C         143.7694  141.4683  160.2755 C.ar    1  UNL1        0.0378
      9 C         144.0846  140.3015  161.1639 C.ar    1  UNL1        0.0141
     10 C         143.6995  140.3367  162.6131 C.ar    1  UNL1        0.0539
     11 CL        144.0146  139.1699  163.5015 Cl      1  UNL1       -0.0826
     12 F         144.8094  142.8491  165.1757 F       1  UNL1       -0.2354
     13 C         143.5192  142.2291  165.6242 C.3     1  UNL1        0.1808
     14 C         143.1341  142.2644  167.0735 C.3     1  UNL1        0.1082
     15 N         141.8439  141.6445  167.5219 N.3     1  UNL1       -0.2671
     16 C         140.9388  140.9893  166.5211 C.3     1  UNL1        0.0727
     17 C         141.3239  140.9541  165.0719 C.3     1  UNL1        0.0245
     18 C         142.6141  141.5740  164.6234 C.3     1  UNL1        0.0586
     19 C         141.4588  141.6797  168.9713 C.3     1  UNL1        0.1228
     20 C         140.0641  141.8000  169.5103 C.3     1  UNL1        0.1610
     21 O         140.1441  141.7954  171.0081 O.3     1  UNL1       -0.3493
     22 C         141.5882  141.6723  171.3949 C.3     1  UNL1        0.1788
     23 C         142.4007  141.6008  170.1360 C.3     1  UNL1        0.2072
     24 F         143.8931  141.4729  170.0560 F       1  UNL1       -0.2330
     25 N         142.8240  144.9688  157.6104 N.pl3   1  UNL1       -0.2794
     26 H         143.2913  145.8258  157.7390 H       1  UNL1        0.1552
     27 C         141.7969  144.8300  156.5261 C.ar    1  UNL1        0.1001
     28 C         142.0231  145.0651  155.0620 C.ar    1  UNL1        0.1372
     29 N         140.7292  144.8120  154.3465 N.ar    1  UNL1       -0.1654
     30 N         139.7033  144.4206  155.3684 N.ar    1  UNL1       -0.2353
     31 C         140.3632  144.4317  156.7155 C.ar    1  UNL1        0.1499
     32 CL        139.7049  144.1023  158.0224 Cl      1  UNL1       -0.0603
     33 C         138.2693  144.0782  155.0919 C.3     1  UNL1        0.1725
     34 C         137.0000  144.3188  154.3297 C.3     1  UNL1        0.0986
     35 C         137.0549  143.2445  155.3751 C.3     1  UNL1        0.2863
     36 F         135.6523  142.7207  155.2843 F       1  UNL1       -0.2022
     37 F         137.5970  142.3521  156.4521 F       1  UNL1       -0.2022
@<TRIPOS>BOND
     1    12    13    1
     2    13    14    1
     3    14    15    1
     4    15    19    1
     5    19    20    1
     6    20    21    1
     7    21    22    1
     8    22    23    1
     9    23    24    1
    10    15    16    1
    11    16    17    1
    12    17    18    1
    13    18     1    1
    14     1     2   ar
    15     2     3   ar
    16     3     4   ar
    17     4     5   ar
    18     5    25    1
    19    25    27    1
    20    27    28   ar
    21    28    29   ar
    22    29    30   ar
    23    30    33    1
    24    33    34    1
    25    34    35    1
    26    35    36    1
    27    35    37    1
    28    30    31   ar
    29    31    32    1
    30     5     6   ar
    31     6     7   ar
    32     7     8   ar
    33     8     9   ar
    34     9    10   ar
    35    10    11    1
    36    18    13    1
    37    10     1   ar
    38    23    19    1
    39     8     3   ar
    40    31    27   ar
    41    35    33    1
    42    25    26    1
@<TRIPOS>MOLECULE
*****
 37 42 0 0 0
SMALL
GASTEIGER

@<TRIPOS>ATOM
      1 C         142.1641  139.5433  163.3809 C.ar    1  UNL1       -0.0077
      2 C         142.8000  140.4667  162.3845 C.ar    1  UNL1        0.0159
      3 C         143.0200  140.0100  160.9727 C.ar    1  UNL1        0.0854
      4 N         143.6559  140.9335  159.9763 N.ar    1  UNL1       -0.2136
      5 C         143.8759  140.4768  158.5646 C.ar    1  UNL1        0.2208
      6 N         143.4600  139.0967  158.1493 N.ar    1  UNL1       -0.2120
      7 C         142.8241  138.1733  159.1457 C.ar    1  UNL1        0.1033
      8 C         142.6041  138.6300  160.5574 C.ar    1  UNL1        0.0378
      9 C         141.9682  137.7066  161.5539 C.ar    1  UNL1        0.0141
     10 C         141.7482  138.1632  162.9656 C.ar    1  UNL1        0.0539
     11 CL        141.1123  137.2398  163.9622 Cl      1  UNL1       -0.0826
     12 F         144.0170  138.6332  165.5578 F       1  UNL1       -0.2354
     13 C         142.8705  139.5449  165.8812 C.3     1  UNL1        0.1808
     14 C         142.6505  140.0015  167.2929 C.3     1  UNL1        0.1082
     15 N         141.5041  140.9131  167.6163 N.3     1  UNL1       -0.2671
     16 C         140.5776  141.3681  166.5279 C.3     1  UNL1        0.0727
     17 C         140.7976  140.9115  165.1161 C.3     1  UNL1        0.0245
     18 C         141.9440  139.9999  164.7928 C.3     1  UNL1        0.0586
     19 C         141.2840  141.3697  169.0281 C.3     1  UNL1        0.1228
     20 C         141.0936  142.7885  169.4763 C.3     1  UNL1        0.1610
     21 O         140.9077  142.7834  170.9647 O.3     1  UNL1       -0.3493
     22 C         140.9831  141.3614  171.4364 C.3     1  UNL1        0.1788
     23 C         141.2157  140.4878  170.2395 C.3     1  UNL1        0.2072
     24 F         141.3555  138.9944  170.2519 F       1  UNL1       -0.2330
     25 N         144.5118  141.4002  157.5680 N.pl3   1  UNL1       -0.2794
     26 H         145.4906  141.4122  157.4627 H       1  UNL1        0.1552
     27 C         143.6564  142.3054  156.7320 C.ar    1  UNL1        0.1001
     28 C         143.4446  142.1984  155.2509 C.ar    1  UNL1        0.1372
     29 N         142.5199  143.3033  154.8338 N.ar    1  UNL1       -0.1654
     30 N         142.1602  144.0933  156.0571 N.ar    1  UNL1       -0.2353
     31 C         142.8625  143.4765  157.2303 C.ar    1  UNL1        0.1499
     32 CL        142.7847  143.9481  158.6521 Cl      1  UNL1       -0.0603
     33 C         141.2567  145.2899  156.0999 C.3     1  UNL1        0.1725
     34 C         140.6651  146.4955  155.4316 C.3     1  UNL1        0.0986
     35 C         140.2833  146.1569  156.8421 C.3     1  UNL1        0.2863
     36 F         139.3272  147.2765  157.1290 F       1  UNL1       -0.2022
     37 F         140.2335  145.4293  158.1529 F       1  UNL1       -0.2022
@<TRIPOS>BOND
     1    12    13    1
     2    13    14    1
     3    14    15    1
     4    15    19    1
     5    19    20    1
     6    20    21    1
     7    21    22    1
     8    22    23    1
     9    23    24    1
    10    15    16    1
    11    16    17    1
    12    17    18    1
    13    18     1    1
    14     1     2   ar
    15     2     3   ar
    16     3     4   ar
    17     4     5   ar
    18     5    25    1
    19    25    27    1
    20    27    28   ar
    21    28    29   ar
    22    29    30   ar
    23    30    33    1
    24    33    34    1
    25    34    35    1
    26    35    36    1
    27    35    37    1
    28    30    31   ar
    29    31    32    1
    30     5     6   ar
    31     6     7   ar
    32     7     8   ar
    33     8     9   ar
    34     9    10   ar
    35    10    11    1
    36    18    13    1
    37    10     1   ar
    38    23    19    1
    39     8     3   ar
    40    31    27   ar
    41    35    33    1
    42    25    26    1
