@<TRIPOS>MOLECULE
*****
 33 36 0 0 0
SMALL
GASTEIGER

@<TRIPOS>ATOM
      1 C         139.7063  142.1629  164.1623 C.ar    1  UNL1        0.0182
      2 C         138.9579  143.0389  165.1228 C.ar    1  UNL1        0.0014
      3 C         137.9423  144.0168  164.6107 C.ar    1  UNL1        0.0031
      4 C         137.6751  144.1187  163.1383 C.ar    1  UNL1        0.0366
      5 C         138.4235  143.2427  162.1778 C.ar    1  UNL1        0.1347
      6 C         139.4391  142.2649  162.6898 C.ar    1  UNL1        0.0151
      7 C         140.1876  141.3888  161.7294 C.3     1  UNL1        0.0528
      8 C         139.9204  141.4908  160.2569 C.3     1  UNL1        0.1200
      9 C         138.9047  142.4687  159.7449 C.3     1  UNL1        0.2250
     10 O         138.1563  143.3447  160.7053 O.3     1  UNL1       -0.4740
     11 C         143.7690  138.2513  166.2104 C.3     1  UNL1        0.0538
     12 C         142.7533  139.2292  165.6984 C.ar    1  UNL1        0.0785
     13 C         141.3384  138.7886  165.4664 C.ar    1  UNL1        0.1135
     14 N         140.3227  139.7665  164.9543 N.ar    1  UNL1       -0.2410
     15 C         140.7220  141.1850  164.6744 C.ar    1  UNL1        0.1002
     16 C         142.1369  141.6256  164.9064 C.ar    1  UNL1        0.1175
     17 N         143.1526  140.6477  165.4184 N.ar    1  UNL1       -0.2450
     18 N         140.6688  140.6148  159.2964 N.am    1  UNL1       -0.2986
     19 C         140.2478  139.1889  159.0975 C.2     1  UNL1        0.2474
     20 O         139.0784  138.6390  159.8590 O.2     1  UNL1       -0.2701
     21 H         141.4364  140.9757  158.7966 H       1  UNL1        0.1498
     22 C         140.9963  138.3130  158.1370 C.ar    1  UNL1        0.0727
     23 C         140.2614  137.6092  157.0348 C.ar    1  UNL1        0.0109
     24 C         141.0098  136.7333  156.0743 C.ar    1  UNL1        0.0579
     25 C         142.4931  136.5611  156.2160 C.ar    1  UNL1        0.2251
     26 N         143.2280  137.2648  157.3181 N.ar    1  UNL1       -0.2100
     27 C         142.4796  138.1407  158.2786 C.ar    1  UNL1        0.1065
     28 O         143.2416  135.6851  155.2555 O.3     1  UNL1       -0.4509
     29 C         142.7682  134.2866  154.9907 C.3     1  UNL1        0.3095
     30 C         142.7222  133.2863  156.1074 C.3     1  UNL1        0.4381
     31 F         142.6762  132.2860  157.2242 F       1  UNL1       -0.1663
     32 F         141.2650  133.0532  155.8386 F       1  UNL1       -0.1663
     33 F         144.1793  133.5195  156.3763 F       1  UNL1       -0.1663
@<TRIPOS>BOND
     1    11    12    1
     2    12    13   ar
     3    13    14   ar
     4    14    15   ar
     5    15     1    1
     6     1     2   ar
     7     2     3   ar
     8     3     4   ar
     9     4     5   ar
    10     5     6   ar
    11     6     7    1
    12     7     8    1
    13     8    18    1
    14    18    19   am
    15    19    20    2
    16    19    22    1
    17    22    23   ar
    18    23    24   ar
    19    24    25   ar
    20    25    28    1
    21    28    29    1
    22    29    30    1
    23    30    31    1
    24    30    32    1
    25    30    33    1
    26    25    26   ar
    27    26    27   ar
    28     8     9    1
    29     9    10    1
    30    15    16   ar
    31    16    17   ar
    32    17    12   ar
    33     6     1   ar
    34    27    22   ar
    35    10     5    1
    36    18    21    1
@<TRIPOS>MOLECULE
*****
 33 36 0 0 0
SMALL
GASTEIGER

@<TRIPOS>ATOM
      1 C         139.1949  140.8446  164.0531 C.ar    1  UNL1        0.0182
      2 C         138.2240  140.5307  165.1526 C.ar    1  UNL1        0.0014
      3 C         138.1329  139.1361  165.6971 C.ar    1  UNL1        0.0031
      4 C         139.0126  138.0553  165.1422 C.ar    1  UNL1        0.0366
      5 C         139.9834  138.3691  164.0427 C.ar    1  UNL1        0.1347
      6 C         140.0746  139.7638  163.4982 C.ar    1  UNL1        0.0151
      7 C         141.0455  140.0777  162.3987 C.3     1  UNL1        0.0528
      8 C         141.9252  138.9969  161.8437 C.3     1  UNL1        0.1200
      9 C         141.8340  137.6022  162.3883 C.3     1  UNL1        0.2250
     10 O         140.8631  137.2883  163.4878 O.3     1  UNL1       -0.4740
     11 C         139.5595  146.4233  161.8748 C.3     1  UNL1        0.0538
     12 C         139.4684  145.0287  162.4194 C.ar    1  UNL1        0.0785
     13 C         140.4148  144.5794  163.4929 C.ar    1  UNL1        0.1135
     14 N         140.3236  143.1846  164.0375 N.ar    1  UNL1       -0.2410
     15 C         139.2860  142.2393  163.5086 C.ar    1  UNL1        0.1002
     16 C         138.3396  142.6886  162.4350 C.ar    1  UNL1        0.1175
     17 N         138.4308  144.0833  161.8905 N.ar    1  UNL1       -0.2450
     18 N         142.8960  139.3107  160.7443 N.am    1  UNL1       -0.2986
     19 C         142.3980  139.5520  159.3501 C.2     1  UNL1        0.2474
     20 O         140.9290  139.4794  159.0554 O.2     1  UNL1       -0.2701
     21 H         143.8602  139.3584  160.9377 H       1  UNL1        0.1498
     22 C         143.3689  139.8658  158.2506 C.ar    1  UNL1        0.0727
     23 C         144.2628  141.0655  158.3592 C.ar    1  UNL1        0.0109
     24 C         145.2337  141.3794  157.2598 C.ar    1  UNL1        0.0579
     25 C         145.3107  140.4936  156.0518 C.ar    1  UNL1        0.2251
     26 N         144.4169  139.2939  155.9432 N.ar    1  UNL1       -0.2100
     27 C         143.4460  138.9800  157.0426 C.ar    1  UNL1        0.1065
     28 O         146.2817  140.8075  154.9523 O.3     1  UNL1       -0.4509
     29 C         147.2127  141.9761  155.0849 C.3     1  UNL1        0.3095
     30 C         148.6888  141.7473  155.2217 C.3     1  UNL1        0.4381
     31 F         150.1649  141.5185  155.3585 F       1  UNL1       -0.1663
     32 F         148.6161  142.1426  156.6668 F       1  UNL1       -0.1663
     33 F         148.7615  141.3520  153.7766 F       1  UNL1       -0.1663
@<TRIPOS>BOND
     1    11    12    1
     2    12    13   ar
     3    13    14   ar
     4    14    15   ar
     5    15     1    1
     6     1     2   ar
     7     2     3   ar
     8     3     4   ar
     9     4     5   ar
    10     5     6   ar
    11     6     7    1
    12     7     8    1
    13     8    18    1
    14    18    19   am
    15    19    20    2
    16    19    22    1
    17    22    23   ar
    18    23    24   ar
    19    24    25   ar
    20    25    28    1
    21    28    29    1
    22    29    30    1
    23    30    31    1
    24    30    32    1
    25    30    33    1
    26    25    26   ar
    27    26    27   ar
    28     8     9    1
    29     9    10    1
    30    15    16   ar
    31    16    17   ar
    32    17    12   ar
    33     6     1   ar
    34    27    22   ar
    35    10     5    1
    36    18    21    1
@<TRIPOS>MOLECULE
*****
 33 36 0 0 0
SMALL
GASTEIGER

@<TRIPOS>ATOM
      1 C         142.0809  142.3094  164.4793 C.ar    1  UNL1        0.0182
      2 C         143.2377  142.6630  165.3662 C.ar    1  UNL1        0.0014
      3 C         144.2010  143.7351  164.9506 C.ar    1  UNL1        0.0031
      4 C         144.0073  144.4535  163.6481 C.ar    1  UNL1        0.0366
      5 C         142.8505  144.0999  162.7613 C.ar    1  UNL1        0.1347
      6 C         141.8873  143.0278  163.1769 C.ar    1  UNL1        0.0151
      7 C         140.7303  142.6741  162.2900 C.3     1  UNL1        0.0528
      8 C         140.5367  143.3925  160.9875 C.3     1  UNL1        0.1200
      9 C         141.5000  144.4646  160.5720 C.3     1  UNL1        0.2250
     10 O         142.6569  144.8183  161.4588 O.3     1  UNL1       -0.4740
     11 C         138.2276  138.0211  166.1417 C.3     1  UNL1        0.0538
     12 C         139.1909  139.0931  165.7261 C.ar    1  UNL1        0.0785
     13 C         140.3863  138.7442  164.8898 C.ar    1  UNL1        0.1135
     14 N         141.3496  139.8163  164.4742 N.ar    1  UNL1       -0.2410
     15 C         141.1175  141.2373  164.8949 C.ar    1  UNL1        0.1002
     16 C         139.9222  141.5861  165.7312 C.ar    1  UNL1        0.1175
     17 N         138.9589  140.5141  166.1468 N.ar    1  UNL1       -0.2450
     18 N         139.3798  143.0388  160.1007 N.am    1  UNL1       -0.2986
     19 C         139.6272  142.4304  158.7521 C.2     1  UNL1        0.2474
     20 O         141.0314  142.1756  158.2904 O.2     1  UNL1       -0.2701
     21 H         138.4582  143.2060  160.4037 H       1  UNL1        0.1498
     22 C         138.4702  142.0767  157.8653 C.ar    1  UNL1        0.0727
     23 C         138.0554  143.0093  156.7660 C.ar    1  UNL1        0.0109
     24 C         136.8985  142.6557  155.8792 C.ar    1  UNL1        0.0579
     25 C         136.1565  141.3695  156.0916 C.ar    1  UNL1        0.2251
     26 N         136.5713  140.4370  157.1908 N.ar    1  UNL1       -0.2100
     27 C         137.7282  140.7906  158.0776 C.ar    1  UNL1        0.1065
     28 O         134.9995  141.0159  155.2047 O.3     1  UNL1       -0.4509
     29 C         134.1486  139.8221  155.5223 C.3     1  UNL1        0.3095
     30 C         133.0383  139.9377  156.5241 C.3     1  UNL1        0.4381
     31 F         131.9279  140.0533  157.5259 F       1  UNL1       -0.1663
     32 F         132.7963  141.3537  156.0926 F       1  UNL1       -0.1663
     33 F         133.2802  138.5217  156.9557 F       1  UNL1       -0.1663
@<TRIPOS>BOND
     1    11    12    1
     2    12    13   ar
     3    13    14   ar
     4    14    15   ar
     5    15     1    1
     6     1     2   ar
     7     2     3   ar
     8     3     4   ar
     9     4     5   ar
    10     5     6   ar
    11     6     7    1
    12     7     8    1
    13     8    18    1
    14    18    19   am
    15    19    20    2
    16    19    22    1
    17    22    23   ar
    18    23    24   ar
    19    24    25   ar
    20    25    28    1
    21    28    29    1
    22    29    30    1
    23    30    31    1
    24    30    32    1
    25    30    33    1
    26    25    26   ar
    27    26    27   ar
    28     8     9    1
    29     9    10    1
    30    15    16   ar
    31    16    17   ar
    32    17    12   ar
    33     6     1   ar
    34    27    22   ar
    35    10     5    1
    36    18    21    1
@<TRIPOS>MOLECULE
*****
 33 36 0 0 0
SMALL
GASTEIGER

@<TRIPOS>ATOM
      1 C         140.8113  142.4752  166.1024 C.ar    1  UNL1        0.0182
      2 C         140.5804  142.8531  167.5355 C.ar    1  UNL1        0.0014
      3 C         140.8904  141.8738  168.6286 C.ar    1  UNL1        0.0031
      4 C         141.4312  140.5167  168.2886 C.ar    1  UNL1        0.0366
      5 C         141.6620  140.1387  166.8555 C.ar    1  UNL1        0.1347
      6 C         141.3520  141.1180  165.7624 C.ar    1  UNL1        0.0151
      7 C         141.5829  140.7400  164.3292 C.3     1  UNL1        0.0528
      8 C         142.1236  139.3829  163.9892 C.3     1  UNL1        0.1200
      9 C         142.4336  138.4036  165.0824 C.3     1  UNL1        0.2250
     10 O         142.2027  138.7815  166.5155 O.3     1  UNL1       -0.4740
     11 C         139.5714  146.3921  161.7296 C.3     1  UNL1        0.0538
     12 C         139.8814  145.4129  162.8228 C.ar    1  UNL1        0.0785
     13 C         141.3026  145.1853  163.2450 C.ar    1  UNL1        0.1135
     14 N         141.6126  144.2060  164.3382 N.ar    1  UNL1       -0.2410
     15 C         140.5013  143.4544  165.0091 C.ar    1  UNL1        0.1002
     16 C         139.0801  143.6821  164.5869 C.ar    1  UNL1        0.1175
     17 N         138.7701  144.6613  163.4938 N.ar    1  UNL1       -0.2450
     18 N         142.3544  139.0049  162.5561 N.am    1  UNL1       -0.2986
     19 C         141.1872  138.8114  161.6341 C.2     1  UNL1        0.2474
     20 O         139.7891  138.9958  162.1452 O.2     1  UNL1       -0.2701
     21 H         143.2721  138.8839  162.2206 H       1  UNL1        0.1498
     22 C         141.4181  138.4334  160.2009 C.ar    1  UNL1        0.0727
     23 C         140.3005  138.5445  159.2066 C.ar    1  UNL1        0.0109
     24 C         140.5313  138.1665  157.7735 C.ar    1  UNL1        0.0579
     25 C         141.8797  137.6776  157.3347 C.ar    1  UNL1        0.2251
     26 N         142.9973  137.5665  158.3290 N.ar    1  UNL1       -0.2100
     27 C         142.7665  137.9445  159.7621 C.ar    1  UNL1        0.1065
     28 O         142.1106  137.2996  155.9015 O.3     1  UNL1       -0.4509
     29 C         142.9692  136.1160  155.5670 C.3     1  UNL1        0.3095
     30 C         142.5491  134.7404  155.9927 C.3     1  UNL1        0.4381
     31 F         142.1289  133.3648  156.4183 F       1  UNL1       -0.1663
     32 F         141.1430  135.0368  155.5626 F       1  UNL1       -0.1663
     33 F         143.9552  134.4440  156.4227 F       1  UNL1       -0.1663
@<TRIPOS>BOND
     1    11    12    1
     2    12    13   ar
     3    13    14   ar
     4    14    15   ar
     5    15     1    1
     6     1     2   ar
     7     2     3   ar
     8     3     4   ar
     9     4     5   ar
    10     5     6   ar
    11     6     7    1
    12     7     8    1
    13     8    18    1
    14    18    19   am
    15    19    20    2
    16    19    22    1
    17    22    23   ar
    18    23    24   ar
    19    24    25   ar
    20    25    28    1
    21    28    29    1
    22    29    30    1
    23    30    31    1
    24    30    32    1
    25    30    33    1
    26    25    26   ar
    27    26    27   ar
    28     8     9    1
    29     9    10    1
    30    15    16   ar
    31    16    17   ar
    32    17    12   ar
    33     6     1   ar
    34    27    22   ar
    35    10     5    1
    36    18    21    1
@<TRIPOS>MOLECULE
*****
 33 36 0 0 0
SMALL
GASTEIGER

@<TRIPOS>ATOM
      1 C         140.7115  140.9819  167.4584 C.ar    1  UNL1        0.0182
      2 C         140.3920  141.0690  168.9214 C.ar    1  UNL1        0.0014
      3 C         141.1749  140.2565  169.9097 C.ar    1  UNL1        0.0031
      4 C         142.2773  139.3568  169.4351 C.ar    1  UNL1        0.0366
      5 C         142.5968  139.2696  167.9721 C.ar    1  UNL1        0.1347
      6 C         141.8139  140.0822  166.9838 C.ar    1  UNL1        0.0151
      7 C         142.1334  139.9950  165.5208 C.3     1  UNL1        0.0528
      8 C         143.2358  139.0953  165.0462 C.3     1  UNL1        0.1200
      9 C         144.0187  138.2828  166.0346 C.3     1  UNL1        0.2250
     10 O         143.6992  138.3699  167.4975 O.3     1  UNL1       -0.4740
     11 C         137.5800  144.2319  163.5048 C.3     1  UNL1        0.0538
     12 C         138.3628  143.4194  164.4931 C.ar    1  UNL1        0.0785
     13 C         139.4225  144.0733  165.3295 C.ar    1  UNL1        0.1135
     14 N         140.2054  143.2608  166.3179 N.ar    1  UNL1       -0.2410
     15 C         139.9286  141.7944  166.4700 C.ar    1  UNL1        0.1002
     16 C         138.8689  141.1405  165.6336 C.ar    1  UNL1        0.1175
     17 N         138.0860  141.9530  164.6452 N.ar    1  UNL1       -0.2450
     18 N         143.5553  139.0081  163.5832 N.am    1  UNL1       -0.2986
     19 C         142.4506  139.0604  162.5698 C.2     1  UNL1        0.2474
     20 O         141.0264  139.1998  163.0194 O.2     1  UNL1       -0.2701
     21 H         144.4901  138.9166  163.2881 H       1  UNL1        0.1498
     22 C         142.7702  138.9732  161.1068 C.ar    1  UNL1        0.0727
     23 C         143.1769  140.2048  160.3533 C.ar    1  UNL1        0.0109
     24 C         143.4965  140.1177  158.8903 C.ar    1  UNL1        0.0579
     25 C         143.4094  138.7989  158.1809 C.ar    1  UNL1        0.2251
     26 N         143.0028  137.5673  158.9345 N.ar    1  UNL1       -0.2100
     27 C         142.6832  137.6545  160.3974 C.ar    1  UNL1        0.1065
     28 O         143.7290  138.7117  156.7179 O.3     1  UNL1       -0.4509
     29 C         143.0225  137.7091  155.8544 C.3     1  UNL1        0.3095
     30 C         143.5963  136.3345  155.6783 C.3     1  UNL1        0.4381
     31 F         144.1701  134.9598  155.5021 F       1  UNL1       -0.1663
     32 F         142.2626  135.7350  156.0125 F       1  UNL1       -0.1663
     33 F         144.9300  136.9340  155.3440 F       1  UNL1       -0.1663
@<TRIPOS>BOND
     1    11    12    1
     2    12    13   ar
     3    13    14   ar
     4    14    15   ar
     5    15     1    1
     6     1     2   ar
     7     2     3   ar
     8     3     4   ar
     9     4     5   ar
    10     5     6   ar
    11     6     7    1
    12     7     8    1
    13     8    18    1
    14    18    19   am
    15    19    20    2
    16    19    22    1
    17    22    23   ar
    18    23    24   ar
    19    24    25   ar
    20    25    28    1
    21    28    29    1
    22    29    30    1
    23    30    31    1
    24    30    32    1
    25    30    33    1
    26    25    26   ar
    27    26    27   ar
    28     8     9    1
    29     9    10    1
    30    15    16   ar
    31    16    17   ar
    32    17    12   ar
    33     6     1   ar
    34    27    22   ar
    35    10     5    1
    36    18    21    1
@<TRIPOS>MOLECULE
*****
 33 36 0 0 0
SMALL
GASTEIGER

@<TRIPOS>ATOM
      1 C         140.4939  141.2030  166.0554 C.ar    1  UNL1        0.0182
      2 C         140.2184  141.2599  167.5287 C.ar    1  UNL1        0.0014
      3 C         139.3613  140.2106  168.1724 C.ar    1  UNL1        0.0031
      4 C         138.7797  139.1045  167.3428 C.ar    1  UNL1        0.0366
      5 C         139.0553  139.0476  165.8694 C.ar    1  UNL1        0.1347
      6 C         139.9124  140.0969  165.2257 C.ar    1  UNL1        0.0151
      7 C         140.1880  140.0400  163.7523 C.3     1  UNL1        0.0528
      8 C         139.6065  138.9339  162.9227 C.3     1  UNL1        0.1200
      9 C         138.7493  137.8846  163.5665 C.3     1  UNL1        0.2250
     10 O         138.4737  137.9415  165.0398 O.3     1  UNL1       -0.4740
     11 C         143.9223  145.4000  163.4803 C.3     1  UNL1        0.0538
     12 C         143.0653  144.3508  164.1240 C.ar    1  UNL1        0.0785
     13 C         143.6957  143.1195  164.7040 C.ar    1  UNL1        0.1135
     14 N         142.8386  142.0702  165.3478 N.ar    1  UNL1       -0.2410
     15 C         141.3511  142.2523  165.4116 C.ar    1  UNL1        0.1002
     16 C         140.7206  143.4836  164.8316 C.ar    1  UNL1        0.1175
     17 N         141.5777  144.5328  164.1878 N.ar    1  UNL1       -0.2450
     18 N         139.8820  138.8770  161.4493 N.am    1  UNL1       -0.2986
     19 C         141.1718  138.2970  160.9494 C.2     1  UNL1        0.2474
     20 O         142.1861  137.7739  161.9228 O.2     1  UNL1       -0.2701
     21 H         139.2163  139.2203  160.8104 H       1  UNL1        0.1498
     22 C         141.4474  138.2401  159.4760 C.ar    1  UNL1        0.0727
     23 C         140.3306  138.4451  158.4957 C.ar    1  UNL1        0.0109
     24 C         140.6061  138.3882  157.0223 C.ar    1  UNL1        0.0579
     25 C         141.9983  138.1264  156.5292 C.ar    1  UNL1        0.2251
     26 N         143.1150  137.9215  157.5095 N.ar    1  UNL1       -0.2100
     27 C         142.8396  137.9783  158.9829 C.ar    1  UNL1        0.1065
     28 O         142.2738  138.0696  155.0558 O.3     1  UNL1       -0.4509
     29 C         141.9303  136.8353  154.2757 C.3     1  UNL1        0.3095
     30 C         141.7690  135.5221  154.9823 C.3     1  UNL1        0.4381
     31 F         141.6078  134.2088  155.6889 F       1  UNL1       -0.1663
     32 F         140.2807  135.7087  154.9895 F       1  UNL1       -0.1663
     33 F         143.2573  135.3355  154.9751 F       1  UNL1       -0.1663
@<TRIPOS>BOND
     1    11    12    1
     2    12    13   ar
     3    13    14   ar
     4    14    15   ar
     5    15     1    1
     6     1     2   ar
     7     2     3   ar
     8     3     4   ar
     9     4     5   ar
    10     5     6   ar
    11     6     7    1
    12     7     8    1
    13     8    18    1
    14    18    19   am
    15    19    20    2
    16    19    22    1
    17    22    23   ar
    18    23    24   ar
    19    24    25   ar
    20    25    28    1
    21    28    29    1
    22    29    30    1
    23    30    31    1
    24    30    32    1
    25    30    33    1
    26    25    26   ar
    27    26    27   ar
    28     8     9    1
    29     9    10    1
    30    15    16   ar
    31    16    17   ar
    32    17    12   ar
    33     6     1   ar
    34    27    22   ar
    35    10     5    1
    36    18    21    1
@<TRIPOS>MOLECULE
*****
 33 36 0 0 0
SMALL
GASTEIGER

@<TRIPOS>ATOM
      1 C         140.5909  140.0382  163.7339 C.ar    1  UNL1        0.0182
      2 C         140.7345  138.8869  164.6845 C.ar    1  UNL1        0.0014
      3 C         139.8868  137.6616  164.5119 C.ar    1  UNL1        0.0031
      4 C         138.8953  137.5876  163.3887 C.ar    1  UNL1        0.0366
      5 C         138.7517  138.7390  162.4381 C.ar    1  UNL1        0.1347
      6 C         139.5995  139.9643  162.6106 C.ar    1  UNL1        0.0151
      7 C         139.4558  141.1157  161.6600 C.3     1  UNL1        0.0528
      8 C         138.4644  141.0417  160.5368 C.3     1  UNL1        0.1200
      9 C         137.6166  139.8163  160.3642 C.3     1  UNL1        0.2250
     10 O         137.7603  138.6650  161.3148 O.3     1  UNL1       -0.4740
     11 C         143.9821  144.9397  164.4240 C.3     1  UNL1        0.0538
     12 C         143.1343  143.7144  164.2515 C.ar    1  UNL1        0.0785
     13 C         141.7004  143.7263  164.6918 C.ar    1  UNL1        0.1135
     14 N         140.8526  142.5009  164.5192 N.ar    1  UNL1       -0.2410
     15 C         141.4387  141.2636  163.9064 C.ar    1  UNL1        0.1002
     16 C         142.8726  141.2517  163.4661 C.ar    1  UNL1        0.1175
     17 N         143.7204  142.4770  163.6386 N.ar    1  UNL1       -0.2450
     18 N         138.3208  142.1931  159.5862 N.am    1  UNL1       -0.2986
     19 C         139.3597  142.4277  158.5299 C.2     1  UNL1        0.2474
     20 O         140.5422  141.5110  158.4243 O.2     1  UNL1       -0.2701
     21 H         137.5446  142.7948  159.6555 H       1  UNL1        0.1498
     22 C         139.2160  143.5791  157.5792 C.ar    1  UNL1        0.0727
     23 C         138.3277  143.4528  156.3772 C.ar    1  UNL1        0.0109
     24 C         138.1840  144.6041  155.4265 C.ar    1  UNL1        0.0579
     25 C         138.9285  145.8818  155.6780 C.ar    1  UNL1        0.2251
     26 N         139.8168  146.0080  156.8801 N.ar    1  UNL1       -0.2100
     27 C         139.9605  144.8567  157.8307 C.ar    1  UNL1        0.1065
     28 O         138.7848  147.0332  154.7273 O.3     1  UNL1       -0.4509
     29 C         139.5450  148.3037  154.9679 C.3     1  UNL1        0.3095
     30 C         138.8097  149.5619  155.3229 C.3     1  UNL1        0.4381
     31 F         138.0743  150.8201  155.6780 F       1  UNL1       -0.1663
     32 F         138.4972  148.9972  156.6769 F       1  UNL1       -0.1663
     33 F         139.1222  150.1267  153.9689 F       1  UNL1       -0.1663
@<TRIPOS>BOND
     1    11    12    1
     2    12    13   ar
     3    13    14   ar
     4    14    15   ar
     5    15     1    1
     6     1     2   ar
     7     2     3   ar
     8     3     4   ar
     9     4     5   ar
    10     5     6   ar
    11     6     7    1
    12     7     8    1
    13     8    18    1
    14    18    19   am
    15    19    20    2
    16    19    22    1
    17    22    23   ar
    18    23    24   ar
    19    24    25   ar
    20    25    28    1
    21    28    29    1
    22    29    30    1
    23    30    31    1
    24    30    32    1
    25    30    33    1
    26    25    26   ar
    27    26    27   ar
    28     8     9    1
    29     9    10    1
    30    15    16   ar
    31    16    17   ar
    32    17    12   ar
    33     6     1   ar
    34    27    22   ar
    35    10     5    1
    36    18    21    1
@<TRIPOS>MOLECULE
*****
 33 36 0 0 0
SMALL
GASTEIGER

@<TRIPOS>ATOM
      1 C         140.5688  143.2952  163.4959 C.ar    1  UNL1        0.0182
      2 C         139.9546  144.1810  164.5390 C.ar    1  UNL1        0.0014
      3 C         138.5367  144.6462  164.3875 C.ar    1  UNL1        0.0031
      4 C         137.7329  144.2256  163.1929 C.ar    1  UNL1        0.0366
      5 C         138.3471  143.3398  162.1498 C.ar    1  UNL1        0.1347
      6 C         139.7650  142.8746  162.3013 C.ar    1  UNL1        0.0151
      7 C         140.3793  141.9887  161.2581 C.3     1  UNL1        0.0528
      8 C         139.5755  141.5681  160.0636 C.3     1  UNL1        0.1200
      9 C         138.1575  142.0333  159.9121 C.3     1  UNL1        0.2250
     10 O         137.5433  142.9191  160.9552 O.3     1  UNL1       -0.4740
     11 C         146.2407  141.4342  164.1017 C.3     1  UNL1        0.0538
     12 C         144.8228  141.8994  163.9502 C.ar    1  UNL1        0.0785
     13 C         144.5141  143.1036  163.1107 C.ar    1  UNL1        0.1135
     14 N         143.0961  143.5688  162.9592 N.ar    1  UNL1       -0.2410
     15 C         141.9868  142.8299  163.6473 C.ar    1  UNL1        0.1002
     16 C         142.2955  141.6258  164.4868 C.ar    1  UNL1        0.1175
     17 N         143.7134  141.1606  164.6383 N.ar    1  UNL1       -0.2450
     18 N         140.1896  140.6823  159.0205 N.am    1  UNL1       -0.2986
     19 C         140.0574  139.1921  159.1296 C.2     1  UNL1        0.2474
     20 O         139.3111  138.5877  160.2818 O.2     1  UNL1       -0.2701
     21 H         140.6795  141.0790  158.2642 H       1  UNL1        0.1498
     22 C         140.6717  138.3063  158.0864 C.ar    1  UNL1        0.0727
     23 C         142.1500  138.0522  158.0941 C.ar    1  UNL1        0.0109
     24 C         142.7642  137.1664  157.0510 C.ar    1  UNL1        0.0579
     25 C         141.9001  136.5348  156.0002 C.ar    1  UNL1        0.2251
     26 N         140.4218  136.7889  155.9924 N.ar    1  UNL1       -0.2100
     27 C         139.8076  137.6747  157.0355 C.ar    1  UNL1        0.1065
     28 O         142.5143  135.6490  154.9570 O.3     1  UNL1       -0.4509
     29 C         141.9528  134.2801  154.7103 C.3     1  UNL1        0.3095
     30 C         142.1693  133.1883  155.7158 C.3     1  UNL1        0.4381
     31 F         142.3857  132.0965  156.7213 F       1  UNL1       -0.1663
     32 F         140.7552  132.7278  155.5203 F       1  UNL1       -0.1663
     33 F         143.5834  133.6487  155.9113 F       1  UNL1       -0.1663
@<TRIPOS>BOND
     1    11    12    1
     2    12    13   ar
     3    13    14   ar
     4    14    15   ar
     5    15     1    1
     6     1     2   ar
     7     2     3   ar
     8     3     4   ar
     9     4     5   ar
    10     5     6   ar
    11     6     7    1
    12     7     8    1
    13     8    18    1
    14    18    19   am
    15    19    20    2
    16    19    22    1
    17    22    23   ar
    18    23    24   ar
    19    24    25   ar
    20    25    28    1
    21    28    29    1
    22    29    30    1
    23    30    31    1
    24    30    32    1
    25    30    33    1
    26    25    26   ar
    27    26    27   ar
    28     8     9    1
    29     9    10    1
    30    15    16   ar
    31    16    17   ar
    32    17    12   ar
    33     6     1   ar
    34    27    22   ar
    35    10     5    1
    36    18    21    1
@<TRIPOS>MOLECULE
*****
 33 36 0 0 0
SMALL
GASTEIGER

@<TRIPOS>ATOM
      1 C         139.1752  140.1963  159.3034 C.ar    1  UNL1        0.0182
      2 C         138.6582  141.5896  159.5070 C.ar    1  UNL1        0.0014
      3 C         138.2031  142.4001  158.3298 C.ar    1  UNL1        0.0031
      4 C         138.2650  141.8174  156.9490 C.ar    1  UNL1        0.0366
      5 C         138.7820  140.4242  156.7454 C.ar    1  UNL1        0.1347
      6 C         139.2371  139.6136  157.9226 C.ar    1  UNL1        0.0151
      7 C         139.7542  138.2203  157.7190 C.3     1  UNL1        0.0528
      8 C         139.8161  137.6376  156.3382 C.3     1  UNL1        0.1200
      9 C         139.3610  138.4482  155.1610 C.3     1  UNL1        0.2250
     10 O         138.8440  139.8415  155.3646 O.3     1  UNL1       -0.4740
     11 C         140.9956  136.9538  164.0122 C.3     1  UNL1        0.0538
     12 C         140.5405  137.7644  162.8351 C.ar    1  UNL1        0.0785
     13 C         141.5353  138.5594  162.0423 C.ar    1  UNL1        0.1135
     14 N         141.0802  139.3700  160.8650 N.ar    1  UNL1       -0.2410
     15 C         139.6304  139.3857  160.4807 C.ar    1  UNL1        0.1002
     16 C         138.6356  138.5907  161.2735 C.ar    1  UNL1        0.1175
     17 N         139.0907  137.7801  162.4507 N.ar    1  UNL1       -0.2450
     18 N         140.3331  136.2444  156.1346 N.am    1  UNL1       -0.2986
     19 C         141.8050  135.9697  156.2258 C.2     1  UNL1        0.2474
     20 O         142.7598  137.0884  156.5205 O.2     1  UNL1       -0.2701
     21 H         139.7065  135.5101  155.9412 H       1  UNL1        0.1498
     22 C         142.3220  134.5764  156.0221 C.ar    1  UNL1        0.0727
     23 C         143.7096  134.2190  156.4657 C.ar    1  UNL1        0.0109
     24 C         144.2266  132.8258  156.2621 C.ar    1  UNL1        0.0579
     25 C         143.3560  131.7899  155.6149 C.ar    1  UNL1        0.2251
     26 N         141.9683  132.1473  155.1713 N.ar    1  UNL1       -0.2100
     27 C         141.4513  133.5405  155.3749 C.ar    1  UNL1        0.1065
     28 O         143.8730  130.3966  155.4113 O.3     1  UNL1       -0.4509
     29 C         144.5424  129.6723  156.5415 C.3     1  UNL1        0.3095
     30 C         143.7985  129.4281  157.8210 C.3     1  UNL1        0.4381
     31 F         143.0547  129.1839  159.1004 F       1  UNL1       -0.1663
     32 F         142.6812  128.7906  157.0496 F       1  UNL1       -0.1663
     33 F         144.9159  130.0656  158.5923 F       1  UNL1       -0.1663
@<TRIPOS>BOND
     1    11    12    1
     2    12    13   ar
     3    13    14   ar
     4    14    15   ar
     5    15     1    1
     6     1     2   ar
     7     2     3   ar
     8     3     4   ar
     9     4     5   ar
    10     5     6   ar
    11     6     7    1
    12     7     8    1
    13     8    18    1
    14    18    19   am
    15    19    20    2
    16    19    22    1
    17    22    23   ar
    18    23    24   ar
    19    24    25   ar
    20    25    28    1
    21    28    29    1
    22    29    30    1
    23    30    31    1
    24    30    32    1
    25    30    33    1
    26    25    26   ar
    27    26    27   ar
    28     8     9    1
    29     9    10    1
    30    15    16   ar
    31    16    17   ar
    32    17    12   ar
    33     6     1   ar
    34    27    22   ar
    35    10     5    1
    36    18    21    1
