@<TRIPOS>MOLECULE
*****
 23 24 0 0 0
SMALL
GASTEIGER

@<TRIPOS>ATOM
      1 C         138.6191  140.7546  163.7329 C.cat   1  UNL1        0.4181
      2 N         139.6437  140.1273  164.6312 N.2     1  UNL1        0.0599
      3 N         138.5533  140.3674  162.2852 N.pl3   1  UNL1       -0.0877
      4 C         139.6113  139.6276  161.5215 C.3     1  UNL1        0.2020
      5 C         139.1298  139.4549  160.1113 C.3     1  UNL1        0.0840
      6 C         137.7742  140.0881  160.0037 C.2     1  UNL1        0.1105
      7 N         137.4179  140.6520  161.3472 N.2     1  UNL1       -0.1190
      8 C         139.8733  138.7695  159.0035 C.3     1  UNL1        0.0094
      9 C         141.3483  138.5267  159.1281 C.3     1  UNL1        0.0005
     10 S         139.7096  140.5145  166.0788 S.O2    1  UNL1        0.1557
     11 O         138.7253  139.4331  166.4128 O.2     1  UNL1       -0.1324
     12 O         140.6939  141.5959  165.7448 O.2     1  UNL1       -0.1324
     13 C         139.7755  140.9017  167.5265 C.ar    1  UNL1        0.1446
     14 C         139.3085  139.9430  168.5813 C.ar    1  UNL1        0.0218
     15 C         139.3745  140.3303  170.0290 C.ar    1  UNL1        0.0023
     16 C         139.9075  141.6762  170.4218 C.ar    1  UNL1        0.0115
     17 C         140.3745  142.6349  169.3669 C.ar    1  UNL1        0.0591
     18 CL        140.9075  143.9809  169.7597 Cl      1  UNL1       -0.0822
     19 C         140.3086  142.2477  167.9193 C.ar    1  UNL1        0.0332
     20 N         137.6605  141.7690  164.2823 N.pl3   1  UNL1       -0.2217
     21 H         136.9307  141.4843  164.8786 H       1  UNL1        0.2454
     22 C         138.2894  144.1990  164.9529 C.3     1  UNL1        0.0436
     23 C         137.8138  143.2173  163.9233 C.3     1  UNL1        0.1638
@<TRIPOS>BOND
     1    22    23    1
     2    23    20    1
     3    20     1    1
     4     1     2    2
     5     2    10    1
     6    10    11    2
     7    10    12    2
     8    10    13    1
     9    13    14   ar
    10    14    15   ar
    11    15    16   ar
    12    16    17   ar
    13    17    18    1
    14    17    19   ar
    15     1     3    1
    16     3     4    1
    17     4     5    1
    18     5     8    1
    19     8     9    1
    20     5     6    1
    21     6     7    2
    22    19    13   ar
    23     7     3    1
    24    20    21    1
@<TRIPOS>MOLECULE
*****
 23 24 0 0 0
SMALL
GASTEIGER

@<TRIPOS>ATOM
      1 C         141.6180  139.0960  164.1292 C.cat   1  UNL1        0.4181
      2 N         141.7662  140.4795  164.6895 N.2     1  UNL1        0.0599
      3 N         142.1695  138.7734  162.7720 N.pl3   1  UNL1       -0.0877
      4 C         141.4324  138.8883  161.4707 C.3     1  UNL1        0.2020
      5 C         142.3624  138.4652  160.3723 C.3     1  UNL1        0.0840
      6 C         143.6742  138.0888  160.9950 C.2     1  UNL1        0.1105
      7 N         143.5550  138.2793  162.4780 N.2     1  UNL1       -0.1190
      8 C         142.0375  138.4254  158.9085 C.3     1  UNL1        0.0094
      9 C         142.6842  137.4007  158.0243 C.3     1  UNL1        0.0005
     10 S         141.2147  140.8022  166.0465 S.O2    1  UNL1        0.1557
     11 O         139.9077  141.1924  165.4226 O.2     1  UNL1       -0.1324
     12 O         142.5217  140.4119  166.6705 O.2     1  UNL1       -0.1324
     13 C         140.6631  141.1248  167.4037 C.ar    1  UNL1        0.1446
     14 C         139.9152  140.0797  168.1772 C.ar    1  UNL1        0.0218
     15 C         139.3637  140.4024  169.5342 C.ar    1  UNL1        0.0023
     16 C         139.5602  141.7702  170.1179 C.ar    1  UNL1        0.0115
     17 C         140.3082  142.8153  169.3444 C.ar    1  UNL1        0.0591
     18 CL        140.5047  144.1830  169.9280 Cl      1  UNL1       -0.0822
     19 C         140.8597  142.4926  167.9873 C.ar    1  UNL1        0.0332
     20 N         140.9181  138.0352  164.9259 N.pl3   1  UNL1       -0.2217
     21 H         141.3986  137.5599  165.6418 H       1  UNL1        0.2454
     22 C         138.4380  137.8936  165.6869 C.3     1  UNL1        0.0436
     23 C         139.4863  137.6984  164.6318 C.3     1  UNL1        0.1638
@<TRIPOS>BOND
     1    22    23    1
     2    23    20    1
     3    20     1    1
     4     1     2    2
     5     2    10    1
     6    10    11    2
     7    10    12    2
     8    10    13    1
     9    13    14   ar
    10    14    15   ar
    11    15    16   ar
    12    16    17   ar
    13    17    18    1
    14    17    19   ar
    15     1     3    1
    16     3     4    1
    17     4     5    1
    18     5     8    1
    19     8     9    1
    20     5     6    1
    21     6     7    2
    22    19    13   ar
    23     7     3    1
    24    20    21    1
@<TRIPOS>MOLECULE
*****
 23 24 0 0 0
SMALL
GASTEIGER

@<TRIPOS>ATOM
      1 C         140.1435  139.8753  166.2401 C.cat   1  UNL1        0.4181
      2 N         141.5615  139.8505  165.7516 N.2     1  UNL1        0.0599
      3 N         139.8366  140.3551  167.6278 N.pl3   1  UNL1       -0.0877
      4 C         140.2555  141.6684  168.2193 C.3     1  UNL1        0.2020
      5 C         139.7347  141.7309  169.6247 C.3     1  UNL1        0.0840
      6 C         138.9940  140.4562  169.9016 C.2     1  UNL1        0.1105
      7 N         139.0569  139.6060  168.6675 N.2     1  UNL1       -0.1190
      8 C         139.9218  142.8683  170.5845 C.3     1  UNL1        0.0094
      9 C         140.4921  144.1696  170.1034 C.3     1  UNL1        0.0005
     10 S         141.8684  139.3707  164.3640 S.O2    1  UNL1        0.1557
     11 O         141.6949  140.7666  163.8430 O.2     1  UNL1       -0.1324
     12 O         142.0419  137.9749  164.8850 O.2     1  UNL1       -0.1324
     13 C         142.1754  138.8909  162.9763 C.ar    1  UNL1        0.1446
     14 C         143.5487  138.3877  162.6434 C.ar    1  UNL1        0.0218
     15 C         143.8556  137.9078  161.2557 C.ar    1  UNL1        0.0023
     16 C         142.7892  137.9312  160.2011 C.ar    1  UNL1        0.0115
     17 C         141.4160  138.4344  160.5340 C.ar    1  UNL1        0.0591
     18 CL        140.3496  138.4577  159.4793 Cl      1  UNL1       -0.0822
     19 C         141.1091  138.9142  161.9216 C.ar    1  UNL1        0.0332
     20 N         139.0324  139.4203  165.3410 N.pl3   1  UNL1       -0.2217
     21 H         138.9403  138.4662  165.1165 H       1  UNL1        0.2454
     22 C         138.1305  140.8045  163.3358 C.3     1  UNL1        0.0436
     23 C         138.0617  140.4190  164.7839 C.3     1  UNL1        0.1638
@<TRIPOS>BOND
     1    22    23    1
     2    23    20    1
     3    20     1    1
     4     1     2    2
     5     2    10    1
     6    10    11    2
     7    10    12    2
     8    10    13    1
     9    13    14   ar
    10    14    15   ar
    11    15    16   ar
    12    16    17   ar
    13    17    18    1
    14    17    19   ar
    15     1     3    1
    16     3     4    1
    17     4     5    1
    18     5     8    1
    19     8     9    1
    20     5     6    1
    21     6     7    2
    22    19    13   ar
    23     7     3    1
    24    20    21    1
@<TRIPOS>MOLECULE
*****
 23 24 0 0 0
SMALL
GASTEIGER

@<TRIPOS>ATOM
      1 C         139.3778  141.1826  164.2432 C.cat   1  UNL1        0.4181
      2 N         140.6262  140.7782  164.9697 N.2     1  UNL1        0.0599
      3 N         139.0269  140.5340  162.9369 N.pl3   1  UNL1       -0.0877
      4 C         139.9997  139.9862  161.9351 C.3     1  UNL1        0.2020
      5 C         139.2156  139.4330  160.7821 C.3     1  UNL1        0.0840
      6 C         137.7582  139.6391  161.0714 C.2     1  UNL1        0.1105
      7 N         137.6416  140.3196  162.4031 N.2     1  UNL1       -0.1190
      8 C         139.7883  138.7873  159.5554 C.3     1  UNL1        0.0094
      9 C         141.2752  138.7125  159.3718 C.3     1  UNL1        0.0005
     10 S         140.9772  141.4266  166.2760 S.O2    1  UNL1        0.1557
     11 O         141.8145  142.4370  165.5494 O.2     1  UNL1       -0.1324
     12 O         140.1399  140.4162  167.0026 O.2     1  UNL1       -0.1324
     13 C         141.3282  142.0751  167.5823 C.ar    1  UNL1        0.1446
     14 C         140.2914  142.8554  168.3347 C.ar    1  UNL1        0.0218
     15 C         140.6424  143.5039  169.6409 C.ar    1  UNL1        0.0023
     16 C         142.0302  143.3719  170.1947 C.ar    1  UNL1        0.0115
     17 C         143.0669  142.5916  169.4424 C.ar    1  UNL1        0.0591
     18 CL        144.4547  142.4597  169.9962 Cl      1  UNL1       -0.0822
     19 C         142.7159  141.9432  168.1361 C.ar    1  UNL1        0.0332
     20 N         138.4804  142.2355  164.8228 N.pl3   1  UNL1       -0.2217
     21 H         137.8097  141.9917  165.5009 H       1  UNL1        0.2454
     22 C         138.6150  144.7700  165.3779 C.3     1  UNL1        0.0436
     23 C         138.6049  143.6598  164.3692 C.3     1  UNL1        0.1638
@<TRIPOS>BOND
     1    22    23    1
     2    23    20    1
     3    20     1    1
     4     1     2    2
     5     2    10    1
     6    10    11    2
     7    10    12    2
     8    10    13    1
     9    13    14   ar
    10    14    15   ar
    11    15    16   ar
    12    16    17   ar
    13    17    18    1
    14    17    19   ar
    15     1     3    1
    16     3     4    1
    17     4     5    1
    18     5     8    1
    19     8     9    1
    20     5     6    1
    21     6     7    2
    22    19    13   ar
    23     7     3    1
    24    20    21    1
@<TRIPOS>MOLECULE
*****
 23 24 0 0 0
SMALL
GASTEIGER

@<TRIPOS>ATOM
      1 C         139.3882  140.6678  164.1177 C.cat   1  UNL1        0.4181
      2 N         140.6759  141.4046  164.3391 N.2     1  UNL1        0.0599
      3 N         138.9683  140.2926  162.7274 N.pl3   1  UNL1       -0.0877
      4 C         139.8824  139.8845  161.6103 C.3     1  UNL1        0.2020
      5 C         139.0396  139.5993  160.4025 C.3     1  UNL1        0.0840
      6 C         137.6047  139.8312  160.7733 C.2     1  UNL1        0.1105
      7 N         137.5607  140.2597  162.2101 N.2     1  UNL1       -0.1190
      8 C         139.5433  139.1595  159.0598 C.3     1  UNL1        0.0094
      9 C         140.9141  138.5643  158.9311 C.3     1  UNL1        0.0005
     10 S         141.0958  141.7798  165.7293 S.O2    1  UNL1        0.1557
     11 O         140.1291  142.9266  165.7119 O.2     1  UNL1       -0.1324
     12 O         142.0625  140.6331  165.7468 O.2     1  UNL1       -0.1324
     13 C         141.5158  142.1550  167.1197 C.ar    1  UNL1        0.1446
     14 C         142.9454  141.9879  167.5421 C.ar    1  UNL1        0.0218
     15 C         143.3653  142.3631  168.9323 C.ar    1  UNL1        0.0023
     16 C         142.3557  142.9054  169.9002 C.ar    1  UNL1        0.0115
     17 C         140.9262  143.0725  169.4777 C.ar    1  UNL1        0.0591
     18 CL        139.9166  143.6148  170.4455 Cl      1  UNL1       -0.0822
     19 C         140.5062  142.6973  168.0875 C.ar    1  UNL1        0.0332
     20 N         138.5205  140.3062  165.2865 N.pl3   1  UNL1       -0.2217
     21 H         137.9975  141.0027  165.7454 H       1  UNL1        0.2454
     22 C         137.6950  138.5433  167.0072 C.3     1  UNL1        0.0436
     23 C         138.4496  138.8834  165.7562 C.3     1  UNL1        0.1638
@<TRIPOS>BOND
     1    22    23    1
     2    23    20    1
     3    20     1    1
     4     1     2    2
     5     2    10    1
     6    10    11    2
     7    10    12    2
     8    10    13    1
     9    13    14   ar
    10    14    15   ar
    11    15    16   ar
    12    16    17   ar
    13    17    18    1
    14    17    19   ar
    15     1     3    1
    16     3     4    1
    17     4     5    1
    18     5     8    1
    19     8     9    1
    20     5     6    1
    21     6     7    2
    22    19    13   ar
    23     7     3    1
    24    20    21    1
@<TRIPOS>MOLECULE
*****
 23 24 0 0 0
SMALL
GASTEIGER

@<TRIPOS>ATOM
      1 C         140.8492  143.3251  163.0769 C.cat   1  UNL1        0.4181
      2 N         140.9184  141.9620  163.6991 N.2     1  UNL1        0.0599
      3 N         141.1206  143.4953  161.6114 N.pl3   1  UNL1       -0.0877
      4 C         141.2057  144.8001  160.8763 C.3     1  UNL1        0.2020
      5 C         141.4922  144.5018  159.4344 C.3     1  UNL1        0.0840
      6 C         141.5842  143.0127  159.2785 C.2     1  UNL1        0.1105
      7 N         141.3546  142.3907  160.6240 N.2     1  UNL1       -0.1190
      8 C         141.6577  145.5147  158.3405 C.3     1  UNL1        0.0094
      9 C         142.0695  145.0747  156.9669 C.3     1  UNL1        0.0005
     10 S         140.6470  141.7918  165.1645 S.O2    1  UNL1        0.1557
     11 O         141.9835  142.3943  165.4819 O.2     1  UNL1       -0.1324
     12 O         139.3106  141.1894  164.8470 O.2     1  UNL1       -0.1324
     13 C         140.3756  141.6216  166.6299 C.ar    1  UNL1        0.1446
     14 C         139.8806  140.3059  167.1531 C.ar    1  UNL1        0.0218
     15 C         139.6091  140.1357  168.6184 C.ar    1  UNL1        0.0023
     16 C         139.8328  141.2812  169.5606 C.ar    1  UNL1        0.0115
     17 C         140.3278  142.5969  169.0374 C.ar    1  UNL1        0.0591
     18 CL        140.5515  143.7425  169.9796 Cl      1  UNL1       -0.0822
     19 C         140.5992  142.7671  167.5721 C.ar    1  UNL1        0.0332
     20 N         140.5087  144.5180  163.9200 N.pl3   1  UNL1       -0.2217
     21 H         141.2266  145.0480  164.3359 H       1  UNL1        0.2454
     22 C         138.5013  144.9365  165.5155 C.3     1  UNL1        0.0436
     23 C         139.0743  144.9035  164.1296 C.3     1  UNL1        0.1638
@<TRIPOS>BOND
     1    22    23    1
     2    23    20    1
     3    20     1    1
     4     1     2    2
     5     2    10    1
     6    10    11    2
     7    10    12    2
     8    10    13    1
     9    13    14   ar
    10    14    15   ar
    11    15    16   ar
    12    16    17   ar
    13    17    18    1
    14    17    19   ar
    15     1     3    1
    16     3     4    1
    17     4     5    1
    18     5     8    1
    19     8     9    1
    20     5     6    1
    21     6     7    2
    22    19    13   ar
    23     7     3    1
    24    20    21    1
@<TRIPOS>MOLECULE
*****
 23 24 0 0 0
SMALL
GASTEIGER

@<TRIPOS>ATOM
      1 C         141.9288  144.6507  161.1113 C.cat   1  UNL1        0.4181
      2 N         142.1470  144.1721  159.7066 N.2     1  UNL1        0.0599
      3 N         142.8606  144.2180  162.2043 N.pl3   1  UNL1       -0.0877
      4 C         143.7902  143.0418  162.1560 C.3     1  UNL1        0.2020
      5 C         144.5305  142.9823  163.4594 C.3     1  UNL1        0.0840
      6 C         144.0583  144.1218  164.3130 C.2     1  UNL1        0.1105
      7 N         143.0262  144.8854  163.5374 N.2     1  UNL1       -0.1190
      8 C         145.5619  141.9625  163.8418 C.3     1  UNL1        0.0094
      9 C         145.1931  140.5099  163.9045 C.3     1  UNL1        0.0005
     10 S         141.2152  144.6048  158.6136 S.O2    1  UNL1        0.1557
     11 O         140.3490  143.4092  158.8787 O.2     1  UNL1       -0.1324
     12 O         142.0814  145.8003  158.3485 O.2     1  UNL1       -0.1324
     13 C         140.2835  145.0375  157.5205 C.ar    1  UNL1        0.1446
     14 C         140.1795  146.4883  157.1543 C.ar    1  UNL1        0.0218
     15 C         139.2478  146.9210  156.0613 C.ar    1  UNL1        0.0023
     16 C         138.4201  145.9028  155.3346 C.ar    1  UNL1        0.0115
     17 C         138.5240  144.4520  155.7008 C.ar    1  UNL1        0.0591
     18 CL        137.6963  143.4338  154.9741 Cl      1  UNL1       -0.0822
     19 C         139.4557  144.0193  156.7938 C.ar    1  UNL1        0.0332
     20 N         140.7788  145.5619  161.4231 N.pl3   1  UNL1       -0.2217
     21 H         140.8404  146.5218  161.2131 H       1  UNL1        0.2454
     22 C         139.4169  144.9490  163.5490 C.3     1  UNL1        0.0436
     23 C         139.5350  145.0108  162.0549 C.3     1  UNL1        0.1638
@<TRIPOS>BOND
     1    22    23    1
     2    23    20    1
     3    20     1    1
     4     1     2    2
     5     2    10    1
     6    10    11    2
     7    10    12    2
     8    10    13    1
     9    13    14   ar
    10    14    15   ar
    11    15    16   ar
    12    16    17   ar
    13    17    18    1
    14    17    19   ar
    15     1     3    1
    16     3     4    1
    17     4     5    1
    18     5     8    1
    19     8     9    1
    20     5     6    1
    21     6     7    2
    22    19    13   ar
    23     7     3    1
    24    20    21    1
@<TRIPOS>MOLECULE
*****
 23 24 0 0 0
SMALL
GASTEIGER

@<TRIPOS>ATOM
      1 C         141.1640  143.9229  163.2138 C.cat   1  UNL1        0.4181
      2 N         140.7536  142.7438  164.0452 N.2     1  UNL1        0.0599
      3 N         140.7825  143.9878  161.7645 N.pl3   1  UNL1       -0.0877
      4 C         140.9717  145.1656  160.8550 C.3     1  UNL1        0.2020
      5 C         140.4510  144.7921  159.4987 C.3     1  UNL1        0.0840
      6 C         139.9401  143.3836  159.5700 C.2     1  UNL1        0.1105
      7 N         140.1450  142.8866  160.9704 N.2     1  UNL1       -0.1190
      8 C         140.4428  145.6726  158.2843 C.3     1  UNL1        0.0094
      9 C         141.7028  145.8751  157.4961 C.3     1  UNL1        0.0005
     10 S         141.1351  142.6788  165.4944 S.O2    1  UNL1        0.1557
     11 O         142.3796  141.9236  165.1329 O.2     1  UNL1       -0.1324
     12 O         139.8905  143.4340  165.8558 O.2     1  UNL1       -0.1324
     13 C         141.5165  142.6138  166.9437 C.ar    1  UNL1        0.1446
     14 C         142.9295  142.2959  167.3338 C.ar    1  UNL1        0.0218
     15 C         143.3108  142.2309  168.7831 C.ar    1  UNL1        0.0023
     16 C         142.2792  142.4839  169.8421 C.ar    1  UNL1        0.0115
     17 C         140.8662  142.8018  169.4520 C.ar    1  UNL1        0.0591
     18 CL        139.8345  143.0548  170.5111 Cl      1  UNL1       -0.0822
     19 C         140.4848  142.8668  168.0028 C.ar    1  UNL1        0.0332
     20 N         141.9558  145.0370  163.8315 N.pl3   1  UNL1       -0.2217
     21 H         141.5067  145.7041  164.3994 H       1  UNL1        0.2454
     22 C         144.1512  144.0183  162.8868 C.3     1  UNL1        0.0436
     23 C         143.4321  145.1348  163.5841 C.3     1  UNL1        0.1638
@<TRIPOS>BOND
     1    22    23    1
     2    23    20    1
     3    20     1    1
     4     1     2    2
     5     2    10    1
     6    10    11    2
     7    10    12    2
     8    10    13    1
     9    13    14   ar
    10    14    15   ar
    11    15    16   ar
    12    16    17   ar
    13    17    18    1
    14    17    19   ar
    15     1     3    1
    16     3     4    1
    17     4     5    1
    18     5     8    1
    19     8     9    1
    20     5     6    1
    21     6     7    2
    22    19    13   ar
    23     7     3    1
    24    20    21    1
@<TRIPOS>MOLECULE
*****
 23 24 0 0 0
SMALL
GASTEIGER

@<TRIPOS>ATOM
      1 C         139.4044  141.8620  163.4807 C.cat   1  UNL1        0.4181
      2 N         140.5984  141.0766  163.9363 N.2     1  UNL1        0.0599
      3 N         139.2429  142.2074  162.0300 N.pl3   1  UNL1       -0.0877
      4 C         140.0792  143.1845  161.2579 C.3     1  UNL1        0.2020
      5 C         139.5700  143.2173  159.8473 C.3     1  UNL1        0.0840
      6 C         138.4190  142.2606  159.7477 C.2     1  UNL1        0.1105
      7 N         138.2169  141.6365  161.0966 N.2     1  UNL1       -0.1190
      8 C         140.1159  144.0591  158.7323 C.3     1  UNL1        0.0094
      9 C         140.4478  145.5017  158.9748 C.3     1  UNL1        0.0005
     10 S         140.7600  140.7312  165.3870 S.O2    1  UNL1        0.1557
     11 O         140.3730  139.3124  165.0922 O.2     1  UNL1       -0.1324
     12 O         141.1470  142.1501  165.6817 O.2     1  UNL1       -0.1324
     13 C         140.9215  140.3859  166.8378 C.ar    1  UNL1        0.1446
     14 C         142.2445  139.8987  167.3499 C.ar    1  UNL1        0.0218
     15 C         142.4060  139.5534  168.8006 C.ar    1  UNL1        0.0023
     16 C         141.2445  139.6952  169.7392 C.ar    1  UNL1        0.0115
     17 C         139.9216  140.1824  169.2270 C.ar    1  UNL1        0.0591
     18 CL        138.7601  140.3242  170.1656 Cl      1  UNL1       -0.0822
     19 C         139.7601  140.5277  167.7763 C.ar    1  UNL1        0.0332
     20 N         138.3720  142.3021  164.4759 N.pl3   1  UNL1       -0.2217
     21 H         137.9900  141.6520  165.1089 H       1  UNL1        0.2454
     22 C         138.7675  144.7709  165.1821 C.3     1  UNL1        0.0436
     23 C         137.9216  143.7325  164.5066 C.3     1  UNL1        0.1638
@<TRIPOS>BOND
     1    22    23    1
     2    23    20    1
     3    20     1    1
     4     1     2    2
     5     2    10    1
     6    10    11    2
     7    10    12    2
     8    10    13    1
     9    13    14   ar
    10    14    15   ar
    11    15    16   ar
    12    16    17   ar
    13    17    18    1
    14    17    19   ar
    15     1     3    1
    16     3     4    1
    17     4     5    1
    18     5     8    1
    19     8     9    1
    20     5     6    1
    21     6     7    2
    22    19    13   ar
    23     7     3    1
    24    20    21    1
