@<TRIPOS>MOLECULE
*****
 36 39 0 0 0
SMALL
GASTEIGER

@<TRIPOS>ATOM
      1 C         140.4659  144.9712  159.8005 C.3     1  UNL1        0.0118
      2 C         140.1744  145.7822  161.0282 C.3     1  UNL1        0.0179
      3 C         139.2692  145.2344  162.0914 C.3     1  UNL1        0.0724
      4 N         138.6556  143.8755  161.9270 N.3     1  UNL1       -0.2689
      5 C         138.9472  143.0645  160.6994 C.3     1  UNL1        0.0724
      6 C         139.8524  143.6123  159.6361 C.3     1  UNL1        0.0179
      7 C         141.3711  145.5190  158.7372 C.3     1  UNL1        0.0851
      8 N         139.4819  146.5901  157.3111 N.am    1  UNL1       -0.3022
      9 C         140.8112  145.9005  157.3990 C.2     1  UNL1        0.2226
     10 O         141.5803  145.5923  156.1486 O.2     1  UNL1       -0.2751
     11 H         138.9771  146.7924  158.1317 H       1  UNL1        0.1497
     12 C         138.2346  145.9416  155.1263 C.3     1  UNL1        0.0262
     13 C         138.9219  146.9716  155.9729 C.3     1  UNL1        0.0951
     14 C         139.0493  148.3829  155.4812 C.2     1  UNL1        0.0083
     15 C         139.8052  148.6718  154.2182 C.2     1  UNL1       -0.0179
     16 C         139.9326  150.0832  153.7265 C.3     1  UNL1        0.1129
     17 C         139.3041  151.2057  154.4978 C.2     1  UNL1        0.2500
     18 O         139.4315  152.6171  154.0061 O.2     1  UNL1       -0.2726
     19 N         138.5483  150.9168  155.7608 N.am    1  UNL1       -0.1779
     20 C         138.4209  149.5055  156.2525 C.2     1  UNL1        0.0856
     21 C         137.7504  143.3277  162.9903 C.3     1  UNL1        0.1007
     22 C         138.2085  142.1879  163.8511 C.ar    1  UNL1        0.0129
     23 C         137.7803  140.7563  163.7197 C.ar    1  UNL1        0.0176
     24 C         138.4824  139.9631  164.7817 C.ar    1  UNL1        0.0799
     25 N         139.3445  140.9045  165.5696 N.ar    1  UNL1       -0.3038
     26 C         139.1753  142.2794  164.9943 C.ar    1  UNL1        0.0772
     27 C         140.2219  140.5357  166.7289 C.ar    1  UNL1        0.0640
     28 C         141.6601  140.1782  166.4973 C.ar    1  UNL1        0.0175
     29 C         142.5374  139.8094  167.6567 C.ar    1  UNL1        0.0053
     30 C         141.9765  139.7980  169.0477 C.ar    1  UNL1        0.0715
     31 C         140.5383  140.1554  169.2795 C.ar    1  UNL1        0.0053
     32 C         139.6610  140.5242  168.1201 C.ar    1  UNL1        0.0175
     33 C         142.8539  139.4291  170.2071 C.3     1  UNL1        0.4186
     34 F         143.7312  139.0603  171.3666 F       1  UNL1       -0.1659
     35 F         142.9305  138.0193  169.7006 F       1  UNL1       -0.1659
     36 F         142.7772  140.8390  170.7137 F       1  UNL1       -0.1659
@<TRIPOS>BOND
     1    12    13    1
     2    13     8    1
     3     8     9   am
     4     9    10    2
     5     9     7    1
     6     7     1    1
     7     1     2    1
     8     2     3    1
     9     3     4    1
    10     4    21    1
    11    21    22    1
    12    22    23   ar
    13    23    24   ar
    14    24    25   ar
    15    25    27    1
    16    27    28   ar
    17    28    29   ar
    18    29    30   ar
    19    30    33    1
    20    33    34    1
    21    33    35    1
    22    33    36    1
    23    30    31   ar
    24    31    32   ar
    25    25    26   ar
    26     4     5    1
    27     5     6    1
    28    13    14    1
    29    14    15    2
    30    15    16    1
    31    16    17    1
    32    17    18    2
    33    17    19    1
    34    19    20    2
    35     6     1    1
    36    20    14    1
    37    26    22   ar
    38    32    27   ar
    39     8    11    1
@<TRIPOS>MOLECULE
*****
 36 39 0 0 0
SMALL
GASTEIGER

@<TRIPOS>ATOM
      1 C         138.3966  140.1698  158.8896 C.3     1  UNL1        0.0118
      2 C         139.5222  139.1909  159.0466 C.3     1  UNL1        0.0179
      3 C         139.6363  138.3737  160.2992 C.3     1  UNL1        0.0724
      4 N         138.6247  138.5355  161.3950 N.3     1  UNL1       -0.2689
      5 C         137.4991  139.5144  161.2380 C.3     1  UNL1        0.0724
      6 C         137.3851  140.3316  159.9854 C.3     1  UNL1        0.0179
      7 C         138.2825  140.9870  157.6369 C.3     1  UNL1        0.0851
      8 N         136.0296  141.5144  156.4551 N.am    1  UNL1       -0.3022
      9 C         137.2427  140.6459  156.6110 C.2     1  UNL1        0.2226
     10 O         137.4160  139.4363  155.7410 O.2     1  UNL1       -0.2751
     11 H         135.9159  142.3082  157.0262 H       1  UNL1        0.1497
     12 C         135.2395  141.4715  153.9806 C.3     1  UNL1        0.0262
     13 C         134.9898  141.1733  155.4293 C.3     1  UNL1        0.0951
     14 C         133.7005  140.5339  155.8520 C.2     1  UNL1        0.0083
     15 C         133.7021  139.1441  156.4163 C.2     1  UNL1       -0.0179
     16 C         132.4128  138.5048  156.8391 C.3     1  UNL1        0.1129
     17 C         131.1217  139.2552  156.6976 C.2     1  UNL1        0.2500
     18 O         129.8324  138.6158  157.1204 O.2     1  UNL1       -0.2726
     19 N         131.1201  140.6450  156.1333 N.am    1  UNL1       -0.1779
     20 C         132.4094  141.2843  155.7105 C.2     1  UNL1        0.0856
     21 C         138.7388  137.7183  162.6477 C.3     1  UNL1        0.1007
     22 C         139.8299  138.0080  163.6353 C.ar    1  UNL1        0.0129
     23 C         141.0953  137.2210  163.8073 C.ar    1  UNL1        0.0176
     24 C         141.8947  137.8621  164.9027 C.ar    1  UNL1        0.0799
     25 N         141.1233  139.0454  165.4078 N.ar    1  UNL1       -0.3038
     26 C         139.8473  139.1355  164.6245 C.ar    1  UNL1        0.0772
     27 C         141.5527  139.9752  166.5037 C.ar    1  UNL1        0.0640
     28 C         142.3498  139.4522  167.6617 C.ar    1  UNL1        0.0175
     29 C         142.7791  140.3820  168.7576 C.ar    1  UNL1        0.0053
     30 C         142.4114  141.8348  168.6956 C.ar    1  UNL1        0.0715
     31 C         141.6143  142.3579  167.5376 C.ar    1  UNL1        0.0053
     32 C         141.1850  141.4281  166.4416 C.ar    1  UNL1        0.0175
     33 C         142.8408  142.7646  169.7915 C.3     1  UNL1        0.4186
     34 F         143.2702  143.6944  170.8874 F       1  UNL1       -0.1659
     35 F         141.5113  143.4561  169.7257 F       1  UNL1       -0.1659
     36 F         144.1703  142.0731  169.8573 F       1  UNL1       -0.1659
@<TRIPOS>BOND
     1    12    13    1
     2    13     8    1
     3     8     9   am
     4     9    10    2
     5     9     7    1
     6     7     1    1
     7     1     2    1
     8     2     3    1
     9     3     4    1
    10     4    21    1
    11    21    22    1
    12    22    23   ar
    13    23    24   ar
    14    24    25   ar
    15    25    27    1
    16    27    28   ar
    17    28    29   ar
    18    29    30   ar
    19    30    33    1
    20    33    34    1
    21    33    35    1
    22    33    36    1
    23    30    31   ar
    24    31    32   ar
    25    25    26   ar
    26     4     5    1
    27     5     6    1
    28    13    14    1
    29    14    15    2
    30    15    16    1
    31    16    17    1
    32    17    18    2
    33    17    19    1
    34    19    20    2
    35     6     1    1
    36    20    14    1
    37    26    22   ar
    38    32    27   ar
    39     8    11    1
@<TRIPOS>MOLECULE
*****
 36 39 0 0 0
SMALL
GASTEIGER

@<TRIPOS>ATOM
      1 C         141.7186  138.4653  158.6985 C.3     1  UNL1        0.0118
      2 C         142.0775  138.1015  160.1087 C.3     1  UNL1        0.0179
      3 C         141.0154  138.0649  161.1673 C.3     1  UNL1        0.0724
      4 N         139.5944  138.3922  160.8157 N.3     1  UNL1       -0.2689
      5 C         139.2355  138.7561  159.4055 C.3     1  UNL1        0.0724
      6 C         140.2976  138.7926  158.3469 C.3     1  UNL1        0.0179
      7 C         142.7807  138.5019  157.6398 C.3     1  UNL1        0.0851
      8 N         141.9624  136.2271  156.6880 N.am    1  UNL1       -0.3022
      9 C         142.9964  137.3119  156.7525 C.2     1  UNL1        0.2226
     10 O         144.2462  137.2067  155.9297 O.2     1  UNL1       -0.2751
     11 H         141.1422  136.2962  157.2281 H       1  UNL1        0.1497
     12 C         141.7579  135.0886  154.3617 C.3     1  UNL1        0.0262
     13 C         142.1782  135.0371  155.8007 C.3     1  UNL1        0.0951
     14 C         142.8141  133.7957  156.3524 C.2     1  UNL1        0.0083
     15 C         144.0199  133.9009  157.2384 C.2     1  UNL1       -0.0179
     16 C         144.6559  132.6594  157.7900 C.3     1  UNL1        0.1129
     17 C         144.0861  131.3128  157.4557 C.2     1  UNL1        0.2500
     18 O         144.7221  130.0713  158.0074 O.2     1  UNL1       -0.2726
     19 N         142.8803  131.2076  156.5697 N.am    1  UNL1       -0.1779
     20 C         142.2443  132.4490  156.0181 C.2     1  UNL1        0.0856
     21 C         138.5324  138.3557  161.8743 C.3     1  UNL1        0.1007
     22 C         138.5276  139.3825  162.9677 C.ar    1  UNL1        0.0129
     23 C         137.7259  140.6502  162.9833 C.ar    1  UNL1        0.0176
     24 C         138.0265  141.3731  164.2627 C.ar    1  UNL1        0.0799
     25 N         139.0141  140.5523  165.0379 N.ar    1  UNL1       -0.3038
     26 C         139.3238  139.3220  164.2376 C.ar    1  UNL1        0.0772
     27 C         139.5908  140.9006  166.3781 C.ar    1  UNL1        0.0640
     28 C         140.2216  142.2436  166.5971 C.ar    1  UNL1        0.0175
     29 C         140.7982  142.5919  167.9373 C.ar    1  UNL1        0.0053
     30 C         140.7440  141.5971  169.0585 C.ar    1  UNL1        0.0715
     31 C         140.1131  140.2540  168.8396 C.ar    1  UNL1        0.0053
     32 C         139.5365  139.9057  167.4994 C.ar    1  UNL1        0.0175
     33 C         141.3206  141.9454  170.3987 C.3     1  UNL1        0.4186
     34 F         141.8972  142.2936  171.7390 F       1  UNL1       -0.1659
     35 F         141.8054  143.2545  169.8500 F       1  UNL1       -0.1659
     36 F         140.8359  140.6362  170.9476 F       1  UNL1       -0.1659
@<TRIPOS>BOND
     1    12    13    1
     2    13     8    1
     3     8     9   am
     4     9    10    2
     5     9     7    1
     6     7     1    1
     7     1     2    1
     8     2     3    1
     9     3     4    1
    10     4    21    1
    11    21    22    1
    12    22    23   ar
    13    23    24   ar
    14    24    25   ar
    15    25    27    1
    16    27    28   ar
    17    28    29   ar
    18    29    30   ar
    19    30    33    1
    20    33    34    1
    21    33    35    1
    22    33    36    1
    23    30    31   ar
    24    31    32   ar
    25    25    26   ar
    26     4     5    1
    27     5     6    1
    28    13    14    1
    29    14    15    2
    30    15    16    1
    31    16    17    1
    32    17    18    2
    33    17    19    1
    34    19    20    2
    35     6     1    1
    36    20    14    1
    37    26    22   ar
    38    32    27   ar
    39     8    11    1
@<TRIPOS>MOLECULE
*****
 36 39 0 0 0
SMALL
GASTEIGER

@<TRIPOS>ATOM
      1 C         142.3235  139.0008  158.6158 C.3     1  UNL1        0.0118
      2 C         142.9895  138.0328  159.5481 C.3     1  UNL1        0.0179
      3 C         143.7698  138.5403  160.7243 C.3     1  UNL1        0.0724
      4 N         143.8841  140.0160  160.9682 N.3     1  UNL1       -0.2689
      5 C         143.2181  140.9840  160.0359 C.3     1  UNL1        0.0724
      6 C         142.4377  140.4765  158.8597 C.3     1  UNL1        0.0179
      7 C         141.5431  138.4933  157.4396 C.3     1  UNL1        0.0851
      8 N         141.2863  136.1285  156.3945 N.am    1  UNL1       -0.3022
      9 C         142.0915  137.3772  156.6008 C.2     1  UNL1        0.2226
     10 O         143.4452  137.5097  155.9684 O.2     1  UNL1       -0.2751
     11 H         140.3978  136.0415  156.8096 H       1  UNL1        0.1497
     12 C         141.6285  135.0197  154.0701 C.3     1  UNL1        0.0262
     13 C         141.8348  135.0124  155.5558 C.3     1  UNL1        0.0951
     14 C         142.5895  133.8891  156.2028 C.2     1  UNL1        0.0083
     15 C         143.7327  134.1878  157.1267 C.2     1  UNL1       -0.0179
     16 C         144.4874  133.0645  157.7737 C.3     1  UNL1        0.1129
     17 C         144.0988  131.6425  157.4967 C.2     1  UNL1        0.2500
     18 O         144.8535  130.5191  158.1437 O.2     1  UNL1       -0.2726
     19 N         142.9556  131.3437  156.5727 N.am    1  UNL1       -0.1779
     20 C         142.2009  132.4671  155.9257 C.2     1  UNL1        0.0856
     21 C         144.6645  140.5235  162.1444 C.3     1  UNL1        0.1007
     22 C         144.1691  140.2725  163.5378 C.ar    1  UNL1        0.0129
     23 C         144.4202  139.0393  164.3540 C.ar    1  UNL1        0.0176
     24 C         143.7420  139.2152  165.6803 C.ar    1  UNL1        0.0799
     25 N         143.0718  140.5572  165.6838 N.ar    1  UNL1       -0.3038
     26 C         143.3358  141.2106  164.3597 C.ar    1  UNL1        0.0772
     27 C         142.2771  141.1428  166.8132 C.ar    1  UNL1        0.0640
     28 C         140.8387  140.7593  166.9961 C.ar    1  UNL1        0.0175
     29 C         140.0440  141.3449  168.1255 C.ar    1  UNL1        0.0053
     30 C         140.6878  142.3142  169.0719 C.ar    1  UNL1        0.0715
     31 C         142.1264  142.6978  168.8891 C.ar    1  UNL1        0.0053
     32 C         142.9210  142.1121  167.7597 C.ar    1  UNL1        0.0175
     33 C         139.8932  142.8998  170.2013 C.3     1  UNL1        0.4186
     34 F         139.0986  143.4856  171.3307 F       1  UNL1       -0.1659
     35 F         139.0968  141.6324  170.2982 F       1  UNL1       -0.1659
     36 F         140.6896  144.1673  170.1044 F       1  UNL1       -0.1659
@<TRIPOS>BOND
     1    12    13    1
     2    13     8    1
     3     8     9   am
     4     9    10    2
     5     9     7    1
     6     7     1    1
     7     1     2    1
     8     2     3    1
     9     3     4    1
    10     4    21    1
    11    21    22    1
    12    22    23   ar
    13    23    24   ar
    14    24    25   ar
    15    25    27    1
    16    27    28   ar
    17    28    29   ar
    18    29    30   ar
    19    30    33    1
    20    33    34    1
    21    33    35    1
    22    33    36    1
    23    30    31   ar
    24    31    32   ar
    25    25    26   ar
    26     4     5    1
    27     5     6    1
    28    13    14    1
    29    14    15    2
    30    15    16    1
    31    16    17    1
    32    17    18    2
    33    17    19    1
    34    19    20    2
    35     6     1    1
    36    20    14    1
    37    26    22   ar
    38    32    27   ar
    39     8    11    1
@<TRIPOS>MOLECULE
*****
 36 39 0 0 0
SMALL
GASTEIGER

@<TRIPOS>ATOM
      1 C         140.8804  138.1869  162.9110 C.3     1  UNL1        0.0118
      2 C         139.8349  138.2736  161.8389 C.3     1  UNL1        0.0179
      3 C         140.2429  138.4416  160.4053 C.3     1  UNL1        0.0724
      4 N         141.6964  138.5230  160.0438 N.3     1  UNL1       -0.2689
      5 C         142.7419  138.4363  161.1159 C.3     1  UNL1        0.0724
      6 C         142.3339  138.2683  162.5495 C.3     1  UNL1        0.0179
      7 C         140.4724  138.0188  164.3447 C.3     1  UNL1        0.0851
      8 N         140.5749  140.3799  165.4239 N.am    1  UNL1       -0.3022
      9 C         139.7989  139.1460  165.0699 C.2     1  UNL1        0.2226
     10 O         138.3495  139.0392  165.4411 O.2     1  UNL1       -0.2751
     11 H         141.5262  140.4500  165.1803 H       1  UNL1        0.1497
     12 C         139.0566  142.4879  165.3914 C.3     1  UNL1        0.0262
     13 C         139.9014  141.5071  166.1491 C.3     1  UNL1        0.0951
     14 C         140.0727  141.6534  167.6321 C.2     1  UNL1        0.0083
     15 C         140.5554  142.9520  168.2069 C.2     1  UNL1       -0.0179
     16 C         140.7267  143.0983  169.6898 C.3     1  UNL1        0.1129
     17 C         140.4153  141.9460  170.5981 C.2     1  UNL1        0.2500
     18 O         140.5866  142.0923  172.0811 O.2     1  UNL1       -0.2726
     19 N         139.9326  140.6473  170.0234 N.am    1  UNL1       -0.1779
     20 C         139.7613  140.5010  168.5404 C.2     1  UNL1        0.0856
     21 C         142.1043  138.6911  158.6101 C.3     1  UNL1        0.1007
     22 C         142.0173  137.5300  157.6645 C.ar    1  UNL1        0.0129
     23 C         141.0491  137.3897  156.5274 C.ar    1  UNL1        0.0176
     24 C         141.3165  136.0784  155.8501 C.ar    1  UNL1        0.0799
     25 N         142.4500  135.4081  156.5686 N.ar    1  UNL1       -0.3038
     26 C         142.8830  136.3053  157.6899 C.ar    1  UNL1        0.0772
     27 C         143.0457  134.0749  156.2259 C.ar    1  UNL1        0.0640
     28 C         144.0494  133.4434  157.1444 C.ar    1  UNL1        0.0175
     29 C         144.6451  132.1101  156.8017 C.ar    1  UNL1        0.0053
     30 C         144.2371  131.4083  155.5404 C.ar    1  UNL1        0.0715
     31 C         143.2334  132.0397  154.6218 C.ar    1  UNL1        0.0053
     32 C         142.6377  133.3730  154.9645 C.ar    1  UNL1        0.0175
     33 C         144.8329  130.0750  155.1977 C.3     1  UNL1        0.4186
     34 F         145.4286  128.7417  154.8551 F       1  UNL1       -0.1659
     35 F         144.6946  130.3886  153.7374 F       1  UNL1       -0.1659
     36 F         144.9712  129.7614  156.6581 F       1  UNL1       -0.1659
@<TRIPOS>BOND
     1    12    13    1
     2    13     8    1
     3     8     9   am
     4     9    10    2
     5     9     7    1
     6     7     1    1
     7     1     2    1
     8     2     3    1
     9     3     4    1
    10     4    21    1
    11    21    22    1
    12    22    23   ar
    13    23    24   ar
    14    24    25   ar
    15    25    27    1
    16    27    28   ar
    17    28    29   ar
    18    29    30   ar
    19    30    33    1
    20    33    34    1
    21    33    35    1
    22    33    36    1
    23    30    31   ar
    24    31    32   ar
    25    25    26   ar
    26     4     5    1
    27     5     6    1
    28    13    14    1
    29    14    15    2
    30    15    16    1
    31    16    17    1
    32    17    18    2
    33    17    19    1
    34    19    20    2
    35     6     1    1
    36    20    14    1
    37    26    22   ar
    38    32    27   ar
    39     8    11    1
@<TRIPOS>MOLECULE
*****
 36 39 0 0 0
SMALL
GASTEIGER

@<TRIPOS>ATOM
      1 C         138.6205  140.5534  157.7350 C.3     1  UNL1        0.0118
      2 C         138.3530  140.9511  159.1564 C.3     1  UNL1        0.0179
      3 C         138.9904  140.1899  160.2807 C.3     1  UNL1        0.0724
      4 N         139.8954  139.0311  159.9837 N.3     1  UNL1       -0.2689
      5 C         140.1629  138.6334  158.5624 C.3     1  UNL1        0.0724
      6 C         139.5254  139.3946  157.4380 C.3     1  UNL1        0.0179
      7 C         137.9830  141.3146  156.6106 C.3     1  UNL1        0.0851
      8 N         135.4707  141.6157  156.0208 N.am    1  UNL1       -0.3022
      9 C         136.7276  140.7984  155.9723 C.2     1  UNL1        0.2226
     10 O         136.7290  139.4648  155.2855 O.2     1  UNL1       -0.2751
     11 H         135.4698  142.4910  156.4716 H       1  UNL1        0.1497
     12 C         133.9806  141.3052  153.9154 C.3     1  UNL1        0.0262
     13 C         134.2153  141.0995  155.3826 C.3     1  UNL1        0.0951
     14 C         133.1946  140.3775  156.2114 C.2     1  UNL1        0.0083
     15 C         131.7345  140.6600  156.0167 C.2     1  UNL1       -0.0179
     16 C         130.7138  139.9381  156.8456 C.3     1  UNL1        0.1129
     17 C         131.1533  138.9336  157.8692 C.2     1  UNL1        0.2500
     18 O         130.1327  138.2117  158.6980 O.2     1  UNL1       -0.2726
     19 N         132.6135  138.6511  158.0639 N.am    1  UNL1       -0.1779
     20 C         133.6342  139.3731  157.2350 C.2     1  UNL1        0.0856
     21 C         140.5328  138.2699  161.1082 C.3     1  UNL1        0.1007
     22 C         140.0214  138.4327  162.5089 C.ar    1  UNL1        0.0129
     23 C         138.9746  137.5853  163.1693 C.ar    1  UNL1        0.0176
     24 C         138.7732  138.1004  164.5636 C.ar    1  UNL1        0.0799
     25 N         139.6955  139.2661  164.7650 N.ar    1  UNL1       -0.3038
     26 C         140.4669  139.4715  163.4950 C.ar    1  UNL1        0.0772
     27 C         139.8238  140.0830  166.0164 C.ar    1  UNL1        0.0640
     28 C         139.3422  139.5308  167.3252 C.ar    1  UNL1        0.0175
     29 C         139.4705  140.3476  168.5767 C.ar    1  UNL1        0.0053
     30 C         140.0805  141.7167  168.5194 C.ar    1  UNL1        0.0715
     31 C         140.5622  142.2690  167.2106 C.ar    1  UNL1        0.0053
     32 C         140.4338  141.4521  165.9591 C.ar    1  UNL1        0.0175
     33 C         140.2088  142.5336  169.7709 C.3     1  UNL1        0.4186
     34 F         140.3371  143.3504  171.0224 F       1  UNL1       -0.1659
     35 F         141.4287  143.2019  169.2096 F       1  UNL1       -0.1659
     36 F         138.9888  141.8652  170.3323 F       1  UNL1       -0.1659
@<TRIPOS>BOND
     1    12    13    1
     2    13     8    1
     3     8     9   am
     4     9    10    2
     5     9     7    1
     6     7     1    1
     7     1     2    1
     8     2     3    1
     9     3     4    1
    10     4    21    1
    11    21    22    1
    12    22    23   ar
    13    23    24   ar
    14    24    25   ar
    15    25    27    1
    16    27    28   ar
    17    28    29   ar
    18    29    30   ar
    19    30    33    1
    20    33    34    1
    21    33    35    1
    22    33    36    1
    23    30    31   ar
    24    31    32   ar
    25    25    26   ar
    26     4     5    1
    27     5     6    1
    28    13    14    1
    29    14    15    2
    30    15    16    1
    31    16    17    1
    32    17    18    2
    33    17    19    1
    34    19    20    2
    35     6     1    1
    36    20    14    1
    37    26    22   ar
    38    32    27   ar
    39     8    11    1
@<TRIPOS>MOLECULE
*****
 36 39 0 0 0
SMALL
GASTEIGER

@<TRIPOS>ATOM
      1 C         139.8176  144.4697  162.3005 C.3     1  UNL1        0.0118
      2 C         139.6205  143.1169  161.6833 C.3     1  UNL1        0.0179
      3 C         139.8210  142.9289  160.2088 C.3     1  UNL1        0.0724
      4 N         140.2186  144.0937  159.3514 N.3     1  UNL1       -0.2689
      5 C         140.4158  145.4465  159.9686 C.3     1  UNL1        0.0724
      6 C         140.2153  145.6345  161.4432 C.3     1  UNL1        0.0179
      7 C         139.6171  144.6578  163.7752 C.3     1  UNL1        0.0851
      8 N         140.4973  142.7293  165.2773 N.am    1  UNL1       -0.3022
      9 C         139.3524  143.4710  164.6535 C.2     1  UNL1        0.2226
     10 O         137.9428  143.0258  164.9079 O.2     1  UNL1       -0.2751
     11 H         141.4225  143.0215  165.1103 H       1  UNL1        0.1497
     12 C         139.9453  140.2045  165.5417 C.3     1  UNL1        0.0262
     13 C         140.2326  141.5426  166.1556 C.3     1  UNL1        0.0951
     14 C         140.2553  141.6938  167.6478 C.2     1  UNL1        0.0083
     15 C         140.6613  143.0001  168.2631 C.2     1  UNL1       -0.0179
     16 C         140.6840  143.1514  169.7553 C.3     1  UNL1        0.1129
     17 C         140.3005  141.9964  170.6321 C.2     1  UNL1        0.2500
     18 O         140.3232  142.1477  172.1243 O.2     1  UNL1       -0.2726
     19 N         139.8945  140.6901  170.0168 N.am    1  UNL1       -0.1779
     20 C         139.8718  140.5388  168.5246 C.2     1  UNL1        0.0856
     21 C         140.4192  143.9057  157.8768 C.3     1  UNL1        0.1007
     22 C         139.7831  144.8561  156.9061 C.ar    1  UNL1        0.0129
     23 C         138.7377  144.5083  155.8882 C.ar    1  UNL1        0.0176
     24 C         138.3892  145.7584  155.1360 C.ar    1  UNL1        0.0799
     25 N         139.2192  146.8788  155.6891 N.ar    1  UNL1       -0.3038
     26 C         140.0806  146.3211  156.7831 C.ar    1  UNL1        0.0772
     27 C         139.1925  148.3062  155.2289 C.ar    1  UNL1        0.0640
     28 C         139.8297  148.6861  153.9253 C.ar    1  UNL1        0.0175
     29 C         139.8029  150.1135  153.4651 C.ar    1  UNL1        0.0053
     30 C         139.1389  151.1610  154.3086 C.ar    1  UNL1        0.0715
     31 C         138.5016  150.7812  155.6123 C.ar    1  UNL1        0.0053
     32 C         138.5284  149.3538  156.0724 C.ar    1  UNL1        0.0175
     33 C         139.1121  152.5884  153.8485 C.3     1  UNL1        0.4186
     34 F         139.0854  154.0159  153.3882 F       1  UNL1       -0.1659
     35 F         138.0246  152.8868  154.8374 F       1  UNL1       -0.1659
     36 F         140.1998  152.2900  152.8594 F       1  UNL1       -0.1659
@<TRIPOS>BOND
     1    12    13    1
     2    13     8    1
     3     8     9   am
     4     9    10    2
     5     9     7    1
     6     7     1    1
     7     1     2    1
     8     2     3    1
     9     3     4    1
    10     4    21    1
    11    21    22    1
    12    22    23   ar
    13    23    24   ar
    14    24    25   ar
    15    25    27    1
    16    27    28   ar
    17    28    29   ar
    18    29    30   ar
    19    30    33    1
    20    33    34    1
    21    33    35    1
    22    33    36    1
    23    30    31   ar
    24    31    32   ar
    25    25    26   ar
    26     4     5    1
    27     5     6    1
    28    13    14    1
    29    14    15    2
    30    15    16    1
    31    16    17    1
    32    17    18    2
    33    17    19    1
    34    19    20    2
    35     6     1    1
    36    20    14    1
    37    26    22   ar
    38    32    27   ar
    39     8    11    1
@<TRIPOS>MOLECULE
*****
 36 39 0 0 0
SMALL
GASTEIGER

@<TRIPOS>ATOM
      1 C         141.3272  139.2009  159.3200 C.3     1  UNL1        0.0118
      2 C         141.8167  140.5769  159.6621 C.3     1  UNL1        0.0179
      3 C         142.8720  140.7578  160.7125 C.3     1  UNL1        0.0724
      4 N         143.4378  139.5628  161.4209 N.3     1  UNL1       -0.2689
      5 C         142.9484  138.1869  161.0787 C.3     1  UNL1        0.0724
      6 C         141.8931  138.0059  160.0283 C.3     1  UNL1        0.0179
      7 C         140.2718  139.0199  158.2694 C.3     1  UNL1        0.0851
      8 N         141.8056  137.6269  156.7020 N.am    1  UNL1       -0.3022
      9 C         140.4373  137.9674  157.2137 C.2     1  UNL1        0.2226
     10 O         139.2344  137.2553  156.6695 O.2     1  UNL1       -0.2751
     11 H         142.5951  138.0942  157.0591 H       1  UNL1        0.1497
     12 C         141.8195  136.9344  154.1980 C.3     1  UNL1        0.0262
     13 C         141.9710  136.5743  155.6462 C.3     1  UNL1        0.0951
     14 C         142.2880  135.1617  156.0386 C.2     1  UNL1        0.0083
     15 C         141.5811  134.0207  155.3689 C.2     1  UNL1       -0.0179
     16 C         141.8980  132.6081  155.7614 C.3     1  UNL1        0.1129
     17 C         142.9218  132.3364  156.8234 C.2     1  UNL1        0.2500
     18 O         143.2387  130.9237  157.2158 O.2     1  UNL1       -0.2726
     19 N         143.6287  133.4774  157.4930 N.am    1  UNL1       -0.1779
     20 C         143.3118  134.8900  157.1006 C.2     1  UNL1        0.0856
     21 C         144.4932  139.7438  162.4714 C.3     1  UNL1        0.1007
     22 C         144.2915  140.7416  163.5730 C.ar    1  UNL1        0.0129
     23 C         145.1238  141.9653  163.8175 C.ar    1  UNL1        0.0176
     24 C         144.5688  142.6709  165.0192 C.ar    1  UNL1        0.0799
     25 N         143.3934  141.8832  165.5175 N.ar    1  UNL1       -0.3038
     26 C         143.2221  140.6909  164.6236 C.ar    1  UNL1        0.0772
     27 C         142.5394  142.2275  166.7016 C.ar    1  UNL1        0.0640
     28 C         141.0961  142.5861  166.5064 C.ar    1  UNL1        0.0175
     29 C         140.2421  142.9304  167.6905 C.ar    1  UNL1        0.0053
     30 C         140.8314  142.9161  169.0697 C.ar    1  UNL1        0.0715
     31 C         142.2747  142.5575  169.2650 C.ar    1  UNL1        0.0053
     32 C         143.1288  142.2133  168.0809 C.ar    1  UNL1        0.0175
     33 C         139.9774  143.2604  170.2538 C.3     1  UNL1        0.4186
     34 F         139.1233  143.6046  171.4380 F       1  UNL1       -0.1659
     35 F         140.2201  144.7195  170.0047 F       1  UNL1       -0.1659
     36 F         139.7346  141.8012  170.5030 F       1  UNL1       -0.1659
@<TRIPOS>BOND
     1    12    13    1
     2    13     8    1
     3     8     9   am
     4     9    10    2
     5     9     7    1
     6     7     1    1
     7     1     2    1
     8     2     3    1
     9     3     4    1
    10     4    21    1
    11    21    22    1
    12    22    23   ar
    13    23    24   ar
    14    24    25   ar
    15    25    27    1
    16    27    28   ar
    17    28    29   ar
    18    29    30   ar
    19    30    33    1
    20    33    34    1
    21    33    35    1
    22    33    36    1
    23    30    31   ar
    24    31    32   ar
    25    25    26   ar
    26     4     5    1
    27     5     6    1
    28    13    14    1
    29    14    15    2
    30    15    16    1
    31    16    17    1
    32    17    18    2
    33    17    19    1
    34    19    20    2
    35     6     1    1
    36    20    14    1
    37    26    22   ar
    38    32    27   ar
    39     8    11    1
@<TRIPOS>MOLECULE
*****
 36 39 0 0 0
SMALL
GASTEIGER

@<TRIPOS>ATOM
      1 C         140.5967  138.2071  161.8728 C.3     1  UNL1        0.0118
      2 C         139.6536  138.4198  160.7259 C.3     1  UNL1        0.0179
      3 C         140.1671  138.3884  159.3170 C.3     1  UNL1        0.0724
      4 N         141.6237  138.1443  159.0548 N.3     1  UNL1       -0.2689
      5 C         142.5668  137.9315  160.2016 C.3     1  UNL1        0.0724
      6 C         142.0533  137.9629  161.6106 C.3     1  UNL1        0.0179
      7 C         140.0832  138.2385  163.2818 C.3     1  UNL1        0.0851
      8 N         140.7033  140.6053  164.1557 N.am    1  UNL1       -0.3022
      9 C         139.6761  139.5417  163.9029 C.2     1  UNL1        0.2226
     10 O         138.2420  139.7815  164.2712 O.2     1  UNL1       -0.2751
     11 H         141.6446  140.4480  163.9140 H       1  UNL1        0.1497
     12 C         140.1478  142.0160  166.2654 C.3     1  UNL1        0.0262
     13 C         140.2962  141.9086  164.7767 C.3     1  UNL1        0.0951
     14 C         140.0376  143.1045  163.9090 C.2     1  UNL1        0.0083
     15 C         141.0590  144.1991  163.8166 C.2     1  UNL1       -0.0179
     16 C         140.8004  145.3950  162.9489 C.3     1  UNL1        0.1129
     17 C         139.5203  145.4963  162.1736 C.2     1  UNL1        0.2500
     18 O         139.2616  146.6922  161.3059 O.2     1  UNL1       -0.2726
     19 N         138.4989  144.4018  162.2660 N.am    1  UNL1       -0.1779
     20 C         138.7575  143.2059  163.1337 C.2     1  UNL1        0.0856
     21 C         142.1371  138.1129  157.6457 C.3     1  UNL1        0.1007
     22 C         142.0409  136.8511  156.8403 C.ar    1  UNL1        0.0129
     23 C         140.9919  136.5375  155.8150 C.ar    1  UNL1        0.0176
     24 C         141.2794  135.1740  155.2598 C.ar    1  UNL1        0.0799
     25 N         142.5060  134.6449  155.9421 N.ar    1  UNL1       -0.3038
     26 C         142.9766  135.6814  156.9189 C.ar    1  UNL1        0.0772
     27 C         143.1491  133.3131  155.6915 C.ar    1  UNL1        0.0640
     28 C         142.6186  132.4150  154.6137 C.ar    1  UNL1        0.0175
     29 C         143.2616  131.0832  154.3631 C.ar    1  UNL1        0.0053
     30 C         144.4353  130.6496  155.1904 C.ar    1  UNL1        0.0715
     31 C         144.9659  131.5477  156.2682 C.ar    1  UNL1        0.0053
     32 C         144.3228  132.8794  156.5188 C.ar    1  UNL1        0.0175
     33 C         145.0783  129.3178  154.9398 C.3     1  UNL1        0.4186
     34 F         145.7214  127.9860  154.6893 F       1  UNL1       -0.1659
     35 F         145.1610  129.6332  153.4757 F       1  UNL1       -0.1659
     36 F         144.9957  129.0024  156.4040 F       1  UNL1       -0.1659
@<TRIPOS>BOND
     1    12    13    1
     2    13     8    1
     3     8     9   am
     4     9    10    2
     5     9     7    1
     6     7     1    1
     7     1     2    1
     8     2     3    1
     9     3     4    1
    10     4    21    1
    11    21    22    1
    12    22    23   ar
    13    23    24   ar
    14    24    25   ar
    15    25    27    1
    16    27    28   ar
    17    28    29   ar
    18    29    30   ar
    19    30    33    1
    20    33    34    1
    21    33    35    1
    22    33    36    1
    23    30    31   ar
    24    31    32   ar
    25    25    26   ar
    26     4     5    1
    27     5     6    1
    28    13    14    1
    29    14    15    2
    30    15    16    1
    31    16    17    1
    32    17    18    2
    33    17    19    1
    34    19    20    2
    35     6     1    1
    36    20    14    1
    37    26    22   ar
    38    32    27   ar
    39     8    11    1
