@<TRIPOS>MOLECULE
*****
 39 43 0 0 0
SMALL
GASTEIGER

@<TRIPOS>ATOM
      1 C         139.8666  146.5470  156.4913 C.3     1  UNL1        0.0948
      2 C         140.1710  145.1140  156.8133 C.2     1  UNL1        0.2261
      3 O         140.2345  144.0955  155.7140 O.2     1  UNL1       -0.2749
      4 N         140.4119  144.6995  158.2346 N.am    1  UNL1       -0.2789
      5 C         140.3484  145.7180  159.3340 C.3     1  UNL1        0.0951
      6 C         140.5893  145.3034  160.7553 C.3     1  UNL1        0.0416
      7 C         140.8937  143.8704  161.0773 C.3     1  UNL1        0.0838
      8 C         140.9571  142.8519  159.9780 C.3     1  UNL1        0.1141
      9 C         140.7163  143.2664  158.5566 C.3     1  UNL1        0.1041
     10 N         141.1346  143.4559  162.4986 N.am    1  UNL1       -0.3006
     11 C         142.5032  143.5904  163.0974 C.2     1  UNL1        0.2669
     12 O         143.6311  144.1394  162.2748 O.2     1  UNL1       -0.2684
     13 H         140.3943  143.0956  163.0385 H       1  UNL1        0.1497
     14 C         142.7441  143.1759  164.5187 C.ar    1  UNL1        0.1761
     15 C         141.7694  142.4590  165.4053 C.ar    1  UNL1        0.0673
     16 C         142.4249  142.2455  166.7375 C.ar    1  UNL1        0.1792
     17 O         143.8047  142.8304  166.6743 O.2     1  UNL1       -0.3532
     18 N         144.0020  143.4054  165.3029 N.ar    1  UNL1       -0.0723
     19 C         141.8088  141.5663  167.9246 C.ar    1  UNL1        0.0648
     20 C         142.3587  140.2575  168.4088 C.ar    1  UNL1        0.0077
     21 C         141.7425  139.5783  169.5959 C.ar    1  UNL1        0.0299
     22 C         140.5764  140.2080  170.2986 C.ar    1  UNL1        0.1424
     23 F         139.9604  139.5287  171.4857 F       1  UNL1       -0.2041
     24 C         140.0265  141.5168  169.8144 C.ar    1  UNL1        0.0593
     25 C         140.6427  142.1960  168.6273 C.ar    1  UNL1        0.1453
     26 F         140.0928  143.5048  168.1431 F       1  UNL1       -0.2040
     27 C         141.2615  141.4188  160.2999 C.2     1  UNL1        0.2255
     28 O         140.2817  140.6033  161.0904 O.2     1  UNL1       -0.2750
     29 N         142.5457  140.8013  159.8314 N.am    1  UNL1       -0.3010
     30 H         143.1888  141.3365  159.3126 H       1  UNL1        0.1497
     31 C         142.8501  139.3681  160.1534 C.3     1  UNL1        0.1089
     32 C         142.9687  137.8817  159.9914 C.3     1  UNL1        0.0274
     33 C         142.4209  138.7166  158.8722 C.3     1  UNL1        0.0274
     34 C         143.3849  139.5221  161.5462 C.ar    1  UNL1        0.1549
     35 N         142.8203  138.6938  162.6621 N.ar    1  UNL1       -0.2276
     36 C         143.3552  138.8477  164.0551 C.ar    1  UNL1        0.1019
     37 C         144.4545  139.8299  164.3322 C.ar    1  UNL1        0.0413
     38 C         145.0191  140.6581  163.2163 C.ar    1  UNL1        0.1019
     39 N         144.4843  140.5042  161.8233 N.ar    1  UNL1       -0.2276
@<TRIPOS>BOND
     1     1     2    1
     2     2     3    2
     3     2     4   am
     4     4     5    1
     5     5     6    1
     6     6     7    1
     7     7    10    1
     8    10    11   am
     9    11    12    2
    10    11    14    1
    11    14    15   ar
    12    15    16   ar
    13    16    19    1
    14    19    20   ar
    15    20    21   ar
    16    21    22   ar
    17    22    23    1
    18    22    24   ar
    19    24    25   ar
    20    25    26    1
    21    16    17   ar
    22    17    18   ar
    23     7     8    1
    24     8    27    1
    25    27    28    2
    26    27    29   am
    27    29    31    1
    28    31    34    1
    29    34    35   ar
    30    35    36   ar
    31    36    37   ar
    32    37    38   ar
    33    38    39   ar
    34    31    32    1
    35    32    33    1
    36     8     9    1
    37     9     4    1
    38    18    14   ar
    39    33    31    1
    40    25    19   ar
    41    39    34   ar
    42    10    13    1
    43    29    30    1
@<TRIPOS>MOLECULE
*****
 39 43 0 0 0
SMALL
GASTEIGER

@<TRIPOS>ATOM
      1 C         137.5725  143.5346  155.4060 C.3     1  UNL1        0.0948
      2 C         138.6625  144.0201  156.3148 C.2     1  UNL1        0.2261
      3 O         139.4796  145.2184  155.9323 O.2     1  UNL1       -0.2749
      4 N         138.9355  143.3073  157.6060 N.am    1  UNL1       -0.2789
      5 C         138.1184  142.1090  157.9885 C.3     1  UNL1        0.0951
      6 C         138.3914  141.3962  159.2798 C.3     1  UNL1        0.0416
      7 C         139.4815  141.8817  160.1886 C.3     1  UNL1        0.0838
      8 C         140.2986  143.0800  159.8061 C.3     1  UNL1        0.1141
      9 C         140.0256  143.7928  158.5148 C.3     1  UNL1        0.1041
     10 N         139.7545  141.1689  161.4799 N.am    1  UNL1       -0.3006
     11 C         138.6872  141.0852  162.5305 C.2     1  UNL1        0.2669
     12 O         137.3469  141.7142  162.2899 O.2     1  UNL1       -0.2684
     13 H         140.6342  140.7561  161.6378 H       1  UNL1        0.1497
     14 C         138.9602  140.3724  163.8218 C.ar    1  UNL1        0.1761
     15 C         139.6495  140.9531  165.0209 C.ar    1  UNL1        0.0673
     16 C         139.7071  139.8933  166.0808 C.ar    1  UNL1        0.1792
     17 O         139.0535  138.6576  165.5369 O.2     1  UNL1       -0.3532
     18 N         138.5919  138.9537  164.1407 N.ar    1  UNL1       -0.0723
     19 C         140.3122  140.0430  167.4452 C.ar    1  UNL1        0.0648
     20 C         139.4264  140.2048  168.6448 C.ar    1  UNL1        0.0077
     21 C         140.0314  140.3545  170.0092 C.ar    1  UNL1        0.0299
     22 C         141.5223  140.3424  170.1739 C.ar    1  UNL1        0.1424
     23 F         142.1272  140.4921  171.5384 F       1  UNL1       -0.2041
     24 C         142.4081  140.1806  168.9743 C.ar    1  UNL1        0.0593
     25 C         141.8031  140.0309  167.6099 C.ar    1  UNL1        0.1453
     26 F         142.6889  139.8691  166.4103 F       1  UNL1       -0.2040
     27 C         141.3887  143.5656  160.7149 C.2     1  UNL1        0.2255
     28 O         142.6941  144.0290  160.1394 O.2     1  UNL1       -0.2750
     29 N         141.1735  143.5879  162.1992 N.am    1  UNL1       -0.3010
     30 H         140.3167  143.2837  162.5769 H       1  UNL1        0.1497
     31 C         142.2636  144.0735  163.1080 C.3     1  UNL1        0.1089
     32 C         143.0495  144.9819  164.0063 C.3     1  UNL1        0.0274
     33 C         141.7664  145.4596  163.3935 C.3     1  UNL1        0.0274
     34 C         143.1392  142.8560  163.1380 C.ar    1  UNL1        0.1549
     35 N         144.6305  143.0061  163.1969 N.ar    1  UNL1       -0.2276
     36 C         145.5063  141.7886  163.2269 C.ar    1  UNL1        0.1019
     37 C         144.8907  140.4211  163.1981 C.ar    1  UNL1        0.0413
     38 C         143.3994  140.2709  163.1392 C.ar    1  UNL1        0.1019
     39 N         142.5237  141.4884  163.1092 N.ar    1  UNL1       -0.2276
@<TRIPOS>BOND
     1     1     2    1
     2     2     3    2
     3     2     4   am
     4     4     5    1
     5     5     6    1
     6     6     7    1
     7     7    10    1
     8    10    11   am
     9    11    12    2
    10    11    14    1
    11    14    15   ar
    12    15    16   ar
    13    16    19    1
    14    19    20   ar
    15    20    21   ar
    16    21    22   ar
    17    22    23    1
    18    22    24   ar
    19    24    25   ar
    20    25    26    1
    21    16    17   ar
    22    17    18   ar
    23     7     8    1
    24     8    27    1
    25    27    28    2
    26    27    29   am
    27    29    31    1
    28    31    34    1
    29    34    35   ar
    30    35    36   ar
    31    36    37   ar
    32    37    38   ar
    33    38    39   ar
    34    31    32    1
    35    32    33    1
    36     8     9    1
    37     9     4    1
    38    18    14   ar
    39    33    31    1
    40    25    19   ar
    41    39    34   ar
    42    10    13    1
    43    29    30    1
@<TRIPOS>MOLECULE
*****
 39 43 0 0 0
SMALL
GASTEIGER

@<TRIPOS>ATOM
      1 C         142.8932  137.6070  156.0710 C.3     1  UNL1        0.0948
      2 C         142.6236  138.9543  156.6727 C.2     1  UNL1        0.2261
      3 O         142.5541  140.1678  155.7938 O.2     1  UNL1       -0.2749
      4 N         142.4236  139.0881  158.1533 N.am    1  UNL1       -0.2789
      5 C         142.4932  137.8745  159.0322 C.3     1  UNL1        0.0951
      6 C         142.2932  138.0083  160.5127 C.3     1  UNL1        0.0416
      7 C         142.0237  139.3556  161.1144 C.3     1  UNL1        0.0838
      8 C         141.9541  140.5691  160.2356 C.3     1  UNL1        0.1141
      9 C         142.1541  140.4354  158.7550 C.3     1  UNL1        0.1041
     10 N         141.8237  139.4894  162.5950 N.am    1  UNL1       -0.3006
     11 C         142.9688  139.2424  163.5318 C.2     1  UNL1        0.2669
     12 O         144.3140  138.8616  162.9881 O.2     1  UNL1       -0.2684
     13 H         140.9409  139.7393  162.9519 H       1  UNL1        0.1497
     14 C         142.7688  139.3761  165.0124 C.ar    1  UNL1        0.1761
     15 C         141.9014  140.3907  165.6969 C.ar    1  UNL1        0.0673
     16 C         141.9977  140.1604  167.1760 C.ar    1  UNL1        0.1792
     17 O         142.9245  139.0035  167.4057 O.2     1  UNL1       -0.3532
     18 N         143.4011  138.5189  166.0685 N.ar    1  UNL1       -0.0723
     19 C         141.2911  140.9486  168.2388 C.ar    1  UNL1        0.0648
     20 C         140.0281  140.4189  168.8505 C.ar    1  UNL1        0.0077
     21 C         139.3216  141.2071  169.9132 C.ar    1  UNL1        0.0299
     22 C         139.8780  142.5250  170.3643 C.ar    1  UNL1        0.1424
     23 F         139.1714  143.3131  171.4271 F       1  UNL1       -0.2041
     24 C         141.1410  143.0547  169.7526 C.ar    1  UNL1        0.0593
     25 C         141.8476  142.2665  168.6898 C.ar    1  UNL1        0.1453
     26 F         143.1106  142.7963  168.0782 F       1  UNL1       -0.2040
     27 C         141.6845  141.9165  160.8373 C.2     1  UNL1        0.2255
     28 O         142.5230  142.4092  161.9793 O.2     1  UNL1       -0.2750
     29 N         140.5766  142.7711  160.2969 N.am    1  UNL1       -0.3010
     30 H         140.0263  142.4478  159.5473 H       1  UNL1        0.1497
     31 C         140.3070  144.1185  160.8986 C.3     1  UNL1        0.1089
     32 C         140.3298  145.6058  161.0922 C.3     1  UNL1        0.0274
     33 C         141.0549  144.9892  159.9329 C.3     1  UNL1        0.0274
     34 C         139.4656  143.7156  162.0731 C.ar    1  UNL1        0.1549
     35 N         139.7293  144.3116  163.4242 N.ar    1  UNL1       -0.2276
     36 C         138.8878  143.9087  164.5988 C.ar    1  UNL1        0.1019
     37 C         137.7828  142.9098  164.4224 C.ar    1  UNL1        0.0413
     38 C         137.5191  142.3138  163.0714 C.ar    1  UNL1        0.1019
     39 N         138.3606  142.7168  161.8967 N.ar    1  UNL1       -0.2276
@<TRIPOS>BOND
     1     1     2    1
     2     2     3    2
     3     2     4   am
     4     4     5    1
     5     5     6    1
     6     6     7    1
     7     7    10    1
     8    10    11   am
     9    11    12    2
    10    11    14    1
    11    14    15   ar
    12    15    16   ar
    13    16    19    1
    14    19    20   ar
    15    20    21   ar
    16    21    22   ar
    17    22    23    1
    18    22    24   ar
    19    24    25   ar
    20    25    26    1
    21    16    17   ar
    22    17    18   ar
    23     7     8    1
    24     8    27    1
    25    27    28    2
    26    27    29   am
    27    29    31    1
    28    31    34    1
    29    34    35   ar
    30    35    36   ar
    31    36    37   ar
    32    37    38   ar
    33    38    39   ar
    34    31    32    1
    35    32    33    1
    36     8     9    1
    37     9     4    1
    38    18    14   ar
    39    33    31    1
    40    25    19   ar
    41    39    34   ar
    42    10    13    1
    43    29    30    1
@<TRIPOS>MOLECULE
*****
 39 43 0 0 0
SMALL
GASTEIGER

@<TRIPOS>ATOM
      1 C         139.8888  146.4375  156.5109 C.3     1  UNL1        0.0948
      2 C         140.4204  145.0600  156.7752 C.2     1  UNL1        0.2261
      3 O         140.7196  144.1390  155.6297 O.2     1  UNL1       -0.2749
      4 N         140.6529  144.6036  158.1850 N.am    1  UNL1       -0.2789
      5 C         140.3537  145.5246  159.3305 C.3     1  UNL1        0.0951
      6 C         140.5861  145.0681  160.7404 C.3     1  UNL1        0.0416
      7 C         141.1177  143.6907  161.0047 C.3     1  UNL1        0.0838
      8 C         141.4169  142.7697  159.8592 C.3     1  UNL1        0.1141
      9 C         141.1845  143.2261  158.4494 C.3     1  UNL1        0.1041
     10 N         141.3502  143.2342  162.4145 N.am    1  UNL1       -0.3006
     11 C         142.5538  143.7148  163.1697 C.2     1  UNL1        0.2669
     12 O         143.5251  144.6519  162.5150 O.2     1  UNL1       -0.2684
     13 H         140.7127  142.6192  162.8442 H       1  UNL1        0.1497
     14 C         142.7862  143.2584  164.5795 C.ar    1  UNL1        0.1761
     15 C         141.7959  142.5416  165.4488 C.ar    1  UNL1        0.0673
     16 C         142.4474  142.2788  166.7741 C.ar    1  UNL1        0.1792
     17 O         143.8404  142.8331  166.7239 O.2     1  UNL1       -0.3532
     18 N         144.0497  143.4385  165.3676 N.ar    1  UNL1       -0.0723
     19 C         141.8167  141.5838  167.9442 C.ar    1  UNL1        0.0648
     20 C         142.3467  140.2579  168.4037 C.ar    1  UNL1        0.0077
     21 C         141.7159  139.5628  169.5738 C.ar    1  UNL1        0.0299
     22 C         140.5552  140.1937  170.2843 C.ar    1  UNL1        0.1424
     23 F         139.9246  139.4985  171.4544 F       1  UNL1       -0.2041
     24 C         140.0253  141.5195  169.8248 C.ar    1  UNL1        0.0593
     25 C         140.6560  142.2146  168.6548 C.ar    1  UNL1        0.1453
     26 F         140.1261  143.5405  168.1953 F       1  UNL1       -0.2040
     27 C         141.9486  141.3921  160.1235 C.2     1  UNL1        0.2255
     28 O         143.0902  141.1990  161.0772 O.2     1  UNL1       -0.2750
     29 N         141.3387  140.2078  159.4342 N.am    1  UNL1       -0.3010
     30 H         140.5894  140.3345  158.8082 H       1  UNL1        0.1497
     31 C         141.8703  138.8302  159.6985 C.3     1  UNL1        0.1089
     32 C         142.7095  137.5940  159.5666 C.3     1  UNL1        0.0274
     33 C         142.9404  138.7585  158.6498 C.3     1  UNL1        0.0274
     34 C         140.9849  138.4237  160.8389 C.ar    1  UNL1        0.1549
     35 N         139.5049  138.6545  160.7584 N.ar    1  UNL1       -0.2276
     36 C         138.6193  138.2480  161.8989 C.ar    1  UNL1        0.1019
     37 C         139.2137  137.6108  163.1198 C.ar    1  UNL1        0.0413
     38 C         140.6936  137.3800  163.2003 C.ar    1  UNL1        0.1019
     39 N         141.5792  137.7865  162.0598 N.ar    1  UNL1       -0.2276
@<TRIPOS>BOND
     1     1     2    1
     2     2     3    2
     3     2     4   am
     4     4     5    1
     5     5     6    1
     6     6     7    1
     7     7    10    1
     8    10    11   am
     9    11    12    2
    10    11    14    1
    11    14    15   ar
    12    15    16   ar
    13    16    19    1
    14    19    20   ar
    15    20    21   ar
    16    21    22   ar
    17    22    23    1
    18    22    24   ar
    19    24    25   ar
    20    25    26    1
    21    16    17   ar
    22    17    18   ar
    23     7     8    1
    24     8    27    1
    25    27    28    2
    26    27    29   am
    27    29    31    1
    28    31    34    1
    29    34    35   ar
    30    35    36   ar
    31    36    37   ar
    32    37    38   ar
    33    38    39   ar
    34    31    32    1
    35    32    33    1
    36     8     9    1
    37     9     4    1
    38    18    14   ar
    39    33    31    1
    40    25    19   ar
    41    39    34   ar
    42    10    13    1
    43    29    30    1
@<TRIPOS>MOLECULE
*****
 39 43 0 0 0
SMALL
GASTEIGER

@<TRIPOS>ATOM
      1 C         138.8619  140.0356  169.9623 C.3     1  UNL1        0.0948
      2 C         139.8247  140.7827  169.0878 C.2     1  UNL1        0.2261
      3 O         140.9031  141.6222  169.7060 O.2     1  UNL1       -0.2749
      4 N         139.7092  140.6902  167.5952 N.am    1  UNL1       -0.2789
      5 C         138.6308  139.8507  166.9770 C.3     1  UNL1        0.0951
      6 C         138.5153  139.7582  165.4843 C.3     1  UNL1        0.0416
      7 C         139.4781  140.5053  164.6098 C.3     1  UNL1        0.0838
      8 C         140.5565  141.3448  165.2280 C.3     1  UNL1        0.1141
      9 C         140.6720  141.4373  166.7207 C.3     1  UNL1        0.1041
     10 N         139.3626  140.4128  163.1171 N.am    1  UNL1       -0.3006
     11 C         138.2657  141.1454  162.4030 C.2     1  UNL1        0.2669
     12 O         137.2842  141.9704  163.1815 O.2     1  UNL1       -0.2684
     13 H         140.0067  139.8713  162.6061 H       1  UNL1        0.1497
     14 C         138.1501  141.0529  160.9103 C.ar    1  UNL1        0.1761
     15 C         138.5410  142.1172  159.9281 C.ar    1  UNL1        0.0673
     16 C         138.2559  141.6019  158.5485 C.ar    1  UNL1        0.1792
     17 O         137.6888  140.2193  158.6780 O.2     1  UNL1       -0.3532
     18 N         137.6235  139.8800  160.1377 N.ar    1  UNL1       -0.0723
     19 C         138.4957  142.3398  157.2647 C.ar    1  UNL1        0.0648
     20 C         139.7990  143.0471  157.0385 C.ar    1  UNL1        0.0077
     21 C         140.0389  143.7850  155.7548 C.ar    1  UNL1        0.0299
     22 C         138.9754  143.8156  154.6973 C.ar    1  UNL1        0.1424
     23 F         139.2154  144.5536  153.4136 F       1  UNL1       -0.2041
     24 C         137.6722  143.1083  154.9235 C.ar    1  UNL1        0.0593
     25 C         137.4323  142.3704  156.2073 C.ar    1  UNL1        0.1453
     26 F         136.1290  141.6632  156.4335 F       1  UNL1       -0.2040
     27 C         141.5194  142.0919  164.3535 C.2     1  UNL1        0.2255
     28 O         142.1848  141.3947  163.2041 O.2     1  UNL1       -0.2750
     29 N         141.8169  143.5362  164.6285 N.am    1  UNL1       -0.3010
     30 H         141.3802  143.9937  165.3829 H       1  UNL1        0.1497
     31 C         142.7799  144.2833  163.7540 C.3     1  UNL1        0.1089
     32 C         144.0641  144.8821  163.2620 C.3     1  UNL1        0.0274
     33 C         144.0393  144.1160  164.5513 C.3     1  UNL1        0.0274
     34 C         141.8547  144.7099  162.6531 C.ar    1  UNL1        0.1549
     35 N         140.5599  145.3913  162.9835 N.ar    1  UNL1       -0.2276
     36 C         139.6347  145.8180  161.8826 C.ar    1  UNL1        0.1019
     37 C         140.0042  145.5633  160.4514 C.ar    1  UNL1        0.0413
     38 C         141.2990  144.8820  160.1209 C.ar    1  UNL1        0.1019
     39 N         142.2243  144.4553  161.2218 N.ar    1  UNL1       -0.2276
@<TRIPOS>BOND
     1     1     2    1
     2     2     3    2
     3     2     4   am
     4     4     5    1
     5     5     6    1
     6     6     7    1
     7     7    10    1
     8    10    11   am
     9    11    12    2
    10    11    14    1
    11    14    15   ar
    12    15    16   ar
    13    16    19    1
    14    19    20   ar
    15    20    21   ar
    16    21    22   ar
    17    22    23    1
    18    22    24   ar
    19    24    25   ar
    20    25    26    1
    21    16    17   ar
    22    17    18   ar
    23     7     8    1
    24     8    27    1
    25    27    28    2
    26    27    29   am
    27    29    31    1
    28    31    34    1
    29    34    35   ar
    30    35    36   ar
    31    36    37   ar
    32    37    38   ar
    33    38    39   ar
    34    31    32    1
    35    32    33    1
    36     8     9    1
    37     9     4    1
    38    18    14   ar
    39    33    31    1
    40    25    19   ar
    41    39    34   ar
    42    10    13    1
    43    29    30    1
@<TRIPOS>MOLECULE
*****
 39 43 0 0 0
SMALL
GASTEIGER

@<TRIPOS>ATOM
      1 C         138.6493  140.1902  169.9637 C.3     1  UNL1        0.0948
      2 C         139.5914  140.9510  169.0785 C.2     1  UNL1        0.2261
      3 O         140.4500  142.0374  169.6551 O.2     1  UNL1       -0.2749
      4 N         139.6750  140.6254  167.6167 N.am    1  UNL1       -0.2789
      5 C         138.8164  139.5390  167.0400 C.3     1  UNL1        0.0951
      6 C         138.8999  139.2133  165.5782 C.3     1  UNL1        0.0416
      7 C         139.8420  139.9741  164.6930 C.3     1  UNL1        0.0838
      8 C         140.7006  141.0605  165.2696 C.3     1  UNL1        0.1141
      9 C         140.6170  141.3861  166.7315 C.3     1  UNL1        0.1041
     10 N         139.9256  139.6485  163.2311 N.am    1  UNL1       -0.3006
     11 C         138.8232  140.0690  162.3049 C.2     1  UNL1        0.2669
     12 O         137.6373  140.8152  162.8405 O.2     1  UNL1       -0.2684
     13 H         140.7039  139.1587  162.8796 H       1  UNL1        0.1497
     14 C         138.9068  139.7434  160.8430 C.ar    1  UNL1        0.1761
     15 C         139.9507  138.8877  160.1886 C.ar    1  UNL1        0.0673
     16 C         139.6501  138.8318  158.7200 C.ar    1  UNL1        0.1792
     17 O         138.4205  139.6528  158.4669 O.2     1  UNL1       -0.3532
     18 N         137.9611  140.2161  159.7790 N.ar    1  UNL1       -0.0723
     19 C         140.4404  138.0857  157.6862 C.ar    1  UNL1        0.0648
     20 C         139.7328  137.3632  156.5784 C.ar    1  UNL1        0.0077
     21 C         140.5231  136.6172  155.5446 C.ar    1  UNL1        0.0299
     22 C         142.0211  136.5937  155.6185 C.ar    1  UNL1        0.1424
     23 F         142.8113  135.8476  154.5846 F       1  UNL1       -0.2041
     24 C         142.7288  137.3162  156.7263 C.ar    1  UNL1        0.0593
     25 C         141.9385  138.0622  157.7601 C.ar    1  UNL1        0.1453
     26 F         142.6461  138.7847  158.8679 F       1  UNL1       -0.2040
     27 C         141.6427  141.8213  164.3844 C.2     1  UNL1        0.2255
     28 O         142.2919  141.1383  163.2173 O.2     1  UNL1       -0.2750
     29 N         141.9357  143.2652  164.6663 N.am    1  UNL1       -0.3010
     30 H         141.5097  143.7135  165.4323 H       1  UNL1        0.1497
     31 C         142.8779  144.0260  163.7811 C.3     1  UNL1        0.1089
     32 C         144.1556  144.6062  163.2512 C.3     1  UNL1        0.0274
     33 C         144.1712  143.7703  164.4966 C.3     1  UNL1        0.0274
     34 C         141.9117  144.5458  162.7582 C.ar    1  UNL1        0.1549
     35 N         140.6272  145.1846  163.1964 N.ar    1  UNL1       -0.2276
     36 C         139.6610  145.7044  162.1736 C.ar    1  UNL1        0.1019
     37 C         139.9792  145.5855  160.7126 C.ar    1  UNL1        0.0413
     38 C         141.2637  144.9467  160.2744 C.ar    1  UNL1        0.1019
     39 N         142.2300  144.4269  161.2972 N.ar    1  UNL1       -0.2276
@<TRIPOS>BOND
     1     1     2    1
     2     2     3    2
     3     2     4   am
     4     4     5    1
     5     5     6    1
     6     6     7    1
     7     7    10    1
     8    10    11   am
     9    11    12    2
    10    11    14    1
    11    14    15   ar
    12    15    16   ar
    13    16    19    1
    14    19    20   ar
    15    20    21   ar
    16    21    22   ar
    17    22    23    1
    18    22    24   ar
    19    24    25   ar
    20    25    26    1
    21    16    17   ar
    22    17    18   ar
    23     7     8    1
    24     8    27    1
    25    27    28    2
    26    27    29   am
    27    29    31    1
    28    31    34    1
    29    34    35   ar
    30    35    36   ar
    31    36    37   ar
    32    37    38   ar
    33    38    39   ar
    34    31    32    1
    35    32    33    1
    36     8     9    1
    37     9     4    1
    38    18    14   ar
    39    33    31    1
    40    25    19   ar
    41    39    34   ar
    42    10    13    1
    43    29    30    1
@<TRIPOS>MOLECULE
*****
 39 43 0 0 0
SMALL
GASTEIGER

@<TRIPOS>ATOM
      1 C         142.6128  139.0751  170.0760 C.3     1  UNL1        0.0948
      2 C         141.5778  139.8108  169.2776 C.2     1  UNL1        0.2261
      3 O         140.4961  140.5783  169.9782 O.2     1  UNL1       -0.2749
      4 N         141.6245  139.7790  167.7787 N.am    1  UNL1       -0.2789
      5 C         142.7062  139.0114  167.0782 C.3     1  UNL1        0.0951
      6 C         142.7529  138.9796  165.5792 C.3     1  UNL1        0.0416
      7 C         141.7179  139.7153  164.7808 C.3     1  UNL1        0.0838
      8 C         140.6362  140.4828  165.4814 C.3     1  UNL1        0.1141
      9 C         140.5895  140.5146  166.9803 C.3     1  UNL1        0.1041
     10 N         141.7646  139.6835  163.2819 N.am    1  UNL1       -0.3006
     11 C         141.0216  138.6188  162.5308 C.2     1  UNL1        0.2669
     12 O         140.2317  137.5858  163.2787 O.2     1  UNL1       -0.2684
     13 H         142.2830  140.3615  162.7911 H       1  UNL1        0.1497
     14 C         141.0683  138.5870  161.0319 C.ar    1  UNL1        0.1761
     15 C         142.2987  138.7252  160.1850 C.ar    1  UNL1        0.0673
     16 C         141.8835  138.6350  158.7463 C.ar    1  UNL1        0.1792
     17 O         140.3967  138.4411  158.7041 O.2     1  UNL1       -0.3532
     18 N         139.8929  138.4114  160.1167 N.ar    1  UNL1       -0.0723
     19 C         142.7953  138.7233  157.5585 C.ar    1  UNL1        0.0648
     20 C         142.9745  137.5351  156.6607 C.ar    1  UNL1        0.0077
     21 C         143.8863  137.6234  155.4729 C.ar    1  UNL1        0.0299
     22 C         144.6187  138.8998  155.1828 C.ar    1  UNL1        0.1424
     23 F         145.5304  138.9880  153.9950 F       1  UNL1       -0.2041
     24 C         144.4395  140.0880  156.0806 C.ar    1  UNL1        0.0593
     25 C         143.5277  139.9998  157.2684 C.ar    1  UNL1        0.1453
     26 F         143.3485  141.1880  158.1662 F       1  UNL1       -0.2040
     27 C         139.6012  141.2186  164.6830 C.2     1  UNL1        0.2255
     28 O         138.3267  140.5307  164.2923 O.2     1  UNL1       -0.2750
     29 N         139.8405  142.6421  164.2754 N.am    1  UNL1       -0.3010
     30 H         140.6770  143.0936  164.5318 H       1  UNL1        0.1497
     31 C         138.8055  143.3779  163.4770 C.3     1  UNL1        0.1089
     32 C         137.6339  144.2593  163.1599 C.3     1  UNL1        0.0274
     33 C         138.0531  144.0528  164.5852 C.3     1  UNL1        0.0274
     34 C         139.1985  142.9584  162.0915 C.ar    1  UNL1        0.1549
     35 N         140.6200  142.5803  161.7974 N.ar    1  UNL1       -0.2276
     36 C         141.0131  142.1608  160.4119 C.ar    1  UNL1        0.1019
     37 C         139.9848  142.1193  159.3207 C.ar    1  UNL1        0.0413
     38 C         138.5634  142.4973  159.6148 C.ar    1  UNL1        0.1019
     39 N         138.1702  142.9169  161.0003 N.ar    1  UNL1       -0.2276
@<TRIPOS>BOND
     1     1     2    1
     2     2     3    2
     3     2     4   am
     4     4     5    1
     5     5     6    1
     6     6     7    1
     7     7    10    1
     8    10    11   am
     9    11    12    2
    10    11    14    1
    11    14    15   ar
    12    15    16   ar
    13    16    19    1
    14    19    20   ar
    15    20    21   ar
    16    21    22   ar
    17    22    23    1
    18    22    24   ar
    19    24    25   ar
    20    25    26    1
    21    16    17   ar
    22    17    18   ar
    23     7     8    1
    24     8    27    1
    25    27    28    2
    26    27    29   am
    27    29    31    1
    28    31    34    1
    29    34    35   ar
    30    35    36   ar
    31    36    37   ar
    32    37    38   ar
    33    38    39   ar
    34    31    32    1
    35    32    33    1
    36     8     9    1
    37     9     4    1
    38    18    14   ar
    39    33    31    1
    40    25    19   ar
    41    39    34   ar
    42    10    13    1
    43    29    30    1
@<TRIPOS>MOLECULE
*****
 39 43 0 0 0
SMALL
GASTEIGER

@<TRIPOS>ATOM
      1 C         142.6000  139.0022  170.0154 C.3     1  UNL1        0.0948
      2 C         141.8271  139.9069  169.1020 C.2     1  UNL1        0.2261
      3 O         140.8400  140.8821  169.6716 O.2     1  UNL1       -0.2749
      4 N         142.0414  139.8363  167.6191 N.am    1  UNL1       -0.2789
      5 C         143.0286  138.8611  167.0495 C.3     1  UNL1        0.0951
      6 C         143.2429  138.7905  165.5666 C.3     1  UNL1        0.0416
      7 C         142.4700  139.6952  164.6532 C.3     1  UNL1        0.0838
      8 C         141.4829  140.6704  165.2228 C.3     1  UNL1        0.1141
      9 C         141.2686  140.7409  166.7057 C.3     1  UNL1        0.1041
     10 N         142.6843  139.6246  163.1703 N.am    1  UNL1       -0.3006
     11 C         142.0981  138.4919  162.3808 C.2     1  UNL1        0.2669
     12 O         141.2974  137.4297  163.0743 O.2     1  UNL1       -0.2684
     13 H         143.2098  140.3217  162.7151 H       1  UNL1        0.1497
     14 C         142.3124  138.4214  160.8979 C.ar    1  UNL1        0.1761
     15 C         141.2929  138.0072  159.8784 C.ar    1  UNL1        0.0673
     16 C         141.9342  138.0825  158.5245 C.ar    1  UNL1        0.1792
     17 O         143.3500  138.5430  158.7072 O.2     1  UNL1       -0.3532
     18 N         143.5837  138.7525  160.1740 N.ar    1  UNL1       -0.0723
     19 C         141.2754  137.7546  157.2174 C.ar    1  UNL1        0.0648
     20 C         140.1855  138.6369  156.6849 C.ar    1  UNL1        0.0077
     21 C         139.5266  138.3091  155.3778 C.ar    1  UNL1        0.0299
     22 C         139.9577  137.0990  154.6033 C.ar    1  UNL1        0.1424
     23 F         139.2988  136.7713  153.2962 F       1  UNL1       -0.2041
     24 C         141.0477  136.2168  155.1358 C.ar    1  UNL1        0.0593
     25 C         141.7065  136.5446  156.4429 C.ar    1  UNL1        0.1453
     26 F         142.7965  135.6623  156.9754 F       1  UNL1       -0.2040
     27 C         140.7099  141.5751  164.3094 C.2     1  UNL1        0.2255
     28 O         141.4248  142.3579  163.2482 O.2     1  UNL1       -0.2750
     29 N         139.2223  141.6969  164.4572 N.am    1  UNL1       -0.3010
     30 H         138.7531  141.1830  165.1537 H       1  UNL1        0.1497
     31 C         138.4493  142.6016  163.5438 C.3     1  UNL1        0.1089
     32 C         137.7250  143.8170  163.0459 C.3     1  UNL1        0.0274
     33 C         138.3207  143.8104  164.4225 C.3     1  UNL1        0.0274
     34 C         138.3096  141.7068  162.3481 C.ar    1  UNL1        0.1549
     35 N         138.6149  142.2338  160.9773 N.ar    1  UNL1       -0.2276
     36 C         138.4752  141.3391  159.7815 C.ar    1  UNL1        0.1019
     37 C         138.0303  139.9174  159.9564 C.ar    1  UNL1        0.0413
     38 C         137.7250  139.3903  161.3272 C.ar    1  UNL1        0.1019
     39 N         137.8647  140.2851  162.5230 N.ar    1  UNL1       -0.2276
@<TRIPOS>BOND
     1     1     2    1
     2     2     3    2
     3     2     4   am
     4     4     5    1
     5     5     6    1
     6     6     7    1
     7     7    10    1
     8    10    11   am
     9    11    12    2
    10    11    14    1
    11    14    15   ar
    12    15    16   ar
    13    16    19    1
    14    19    20   ar
    15    20    21   ar
    16    21    22   ar
    17    22    23    1
    18    22    24   ar
    19    24    25   ar
    20    25    26    1
    21    16    17   ar
    22    17    18   ar
    23     7     8    1
    24     8    27    1
    25    27    28    2
    26    27    29   am
    27    29    31    1
    28    31    34    1
    29    34    35   ar
    30    35    36   ar
    31    36    37   ar
    32    37    38   ar
    33    38    39   ar
    34    31    32    1
    35    32    33    1
    36     8     9    1
    37     9     4    1
    38    18    14   ar
    39    33    31    1
    40    25    19   ar
    41    39    34   ar
    42    10    13    1
    43    29    30    1
@<TRIPOS>MOLECULE
*****
 39 43 0 0 0
SMALL
GASTEIGER

@<TRIPOS>ATOM
      1 C         139.9151  145.4405  156.0164 C.3     1  UNL1        0.0948
      2 C         139.4121  144.2881  156.8343 C.2     1  UNL1        0.2261
      3 O         138.5074  143.2657  156.2129 O.2     1  UNL1       -0.2749
      4 N         139.8137  144.1582  158.2737 N.am    1  UNL1       -0.2789
      5 C         140.7183  145.1807  158.8952 C.3     1  UNL1        0.0951
      6 C         141.1199  145.0508  160.3345 C.3     1  UNL1        0.0416
      7 C         140.6169  143.8984  161.1525 C.3     1  UNL1        0.0838
      8 C         139.7123  142.8760  160.5310 C.3     1  UNL1        0.1141
      9 C         139.3107  143.0059  159.0916 C.3     1  UNL1        0.1041
     10 N         141.0185  143.7685  162.5919 N.am    1  UNL1       -0.3006
     11 C         142.2272  142.9618  162.9634 C.2     1  UNL1        0.2669
     12 O         143.0344  142.2849  161.8955 O.2     1  UNL1       -0.2684
     13 H         140.4887  144.2128  163.2927 H       1  UNL1        0.1497
     14 C         142.6288  142.8319  164.4028 C.ar    1  UNL1        0.1761
     15 C         141.7756  142.2889  165.5107 C.ar    1  UNL1        0.0673
     16 C         142.5737  142.3436  166.7796 C.ar    1  UNL1        0.1792
     17 O         143.9200  142.9204  166.4560 O.2     1  UNL1       -0.3532
     18 N         143.9541  143.2221  164.9871 N.ar    1  UNL1       -0.0723
     19 C         142.1072  141.8995  168.1343 C.ar    1  UNL1        0.0648
     20 C         142.8650  140.8403  168.8784 C.ar    1  UNL1        0.0077
     21 C         142.3985  140.3962  170.2330 C.ar    1  UNL1        0.0299
     22 C         141.1742  141.0113  170.8436 C.ar    1  UNL1        0.1424
     23 F         140.7078  140.5671  172.1983 F       1  UNL1       -0.2041
     24 C         140.4164  142.0706  170.0995 C.ar    1  UNL1        0.0593
     25 C         140.8829  142.5147  168.7449 C.ar    1  UNL1        0.1453
     26 F         140.1251  143.5739  168.0008 F       1  UNL1       -0.2040
     27 C         139.2092  141.7236  161.3490 C.2     1  UNL1        0.2255
     28 O         138.3486  141.9764  162.5512 O.2     1  UNL1       -0.2750
     29 N         139.5668  140.3185  160.9646 N.am    1  UNL1       -0.3010
     30 H         140.1316  140.1526  160.1755 H       1  UNL1        0.1497
     31 C         139.0637  139.1660  161.7826 C.3     1  UNL1        0.1089
     32 C         138.1675  138.0630  162.2621 C.3     1  UNL1        0.0274
     33 C         137.7572  138.9077  161.0925 C.3     1  UNL1        0.0274
     34 C         140.1955  139.0243  162.7566 C.ar    1  UNL1        0.1549
     35 N         141.6138  139.1140  162.2764 N.ar    1  UNL1       -0.2276
     36 C         142.7457  138.9723  163.2505 C.ar    1  UNL1        0.1019
     37 C         142.4594  138.7409  164.7045 C.ar    1  UNL1        0.0413
     38 C         141.0412  138.6512  165.1847 C.ar    1  UNL1        0.1019
     39 N         139.9092  138.7929  164.2107 N.ar    1  UNL1       -0.2276
@<TRIPOS>BOND
     1     1     2    1
     2     2     3    2
     3     2     4   am
     4     4     5    1
     5     5     6    1
     6     6     7    1
     7     7    10    1
     8    10    11   am
     9    11    12    2
    10    11    14    1
    11    14    15   ar
    12    15    16   ar
    13    16    19    1
    14    19    20   ar
    15    20    21   ar
    16    21    22   ar
    17    22    23    1
    18    22    24   ar
    19    24    25   ar
    20    25    26    1
    21    16    17   ar
    22    17    18   ar
    23     7     8    1
    24     8    27    1
    25    27    28    2
    26    27    29   am
    27    29    31    1
    28    31    34    1
    29    34    35   ar
    30    35    36   ar
    31    36    37   ar
    32    37    38   ar
    33    38    39   ar
    34    31    32    1
    35    32    33    1
    36     8     9    1
    37     9     4    1
    38    18    14   ar
    39    33    31    1
    40    25    19   ar
    41    39    34   ar
    42    10    13    1
    43    29    30    1
