@<TRIPOS>MOLECULE
*****
 30 33 0 0 0
SMALL
GASTEIGER

@<TRIPOS>ATOM
      1 C         140.8298  141.7938  167.9984 C.ar    1  UNL1        0.0773
      2 N         140.3134  142.7755  169.0080 N.ar    1  UNL1       -0.2442
      3 C         141.2571  143.4158  169.9825 C.ar    1  UNL1        0.0988
      4 C         142.7173  143.0744  169.9472 C.ar    1  UNL1        0.0204
      5 C         143.2337  142.0926  168.9375 C.ar    1  UNL1       -0.0012
      6 C         142.2900  141.4524  167.9631 C.ar    1  UNL1       -0.0038
      7 C         138.4098  139.1364  166.3156 C.ar    1  UNL1        0.0715
      8 C         137.9988  139.8729  165.0752 C.ar    1  UNL1        0.0039
      9 C         138.5314  141.2497  164.8092 C.ar    1  UNL1       -0.0000
     10 C         139.4751  141.8900  165.7836 C.ar    1  UNL1        0.0015
     11 C         139.8861  141.1535  167.0239 C.ar    1  UNL1        0.0173
     12 C         139.3535  139.7767  167.2899 C.ar    1  UNL1        0.0053
     13 F         137.3446  136.3828  166.8475 F       1  UNL1       -0.1659
     14 C         137.8772  137.7596  166.5815 C.3     1  UNL1        0.4186
     15 F         138.7618  137.2090  165.5025 F       1  UNL1       -0.1659
     16 F         136.9927  138.3103  167.6606 F       1  UNL1       -0.1659
     17 C         142.8065  140.4706  166.9534 C.3     1  UNL1        0.0367
     18 C         142.8954  140.8588  165.5072 C.3     1  UNL1        0.0520
     19 C         143.1486  142.2879  165.1285 C.ar    1  UNL1        0.0011
     20 C         142.1587  143.0244  164.2755 C.ar    1  UNL1       -0.0008
     21 C         142.4119  144.4536  163.8968 C.ar    1  UNL1        0.0204
     22 C         143.6551  145.1462  164.3710 C.ar    1  UNL1        0.0989
     23 N         144.6450  144.4096  165.2240 N.ar    1  UNL1       -0.2426
     24 C         144.3917  142.9805  165.6028 C.ar    1  UNL1        0.0949
     25 C         142.7310  139.8178  164.4398 C.ar    1  UNL1        0.0011
     26 C         141.5259  138.9247  164.4423 C.ar    1  UNL1       -0.0008
     27 C         141.3615  137.8838  163.3748 C.ar    1  UNL1        0.0204
     28 C         142.4023  137.7359  162.3049 C.ar    1  UNL1        0.0989
     29 N         143.6075  138.6290  162.3024 N.ar    1  UNL1       -0.2426
     30 C         143.7718  139.6699  163.3698 C.ar    1  UNL1        0.0949
@<TRIPOS>BOND
     1    13    14    1
     2    14    15    1
     3    14    16    1
     4    14     7    1
     5     7     8   ar
     6     8     9   ar
     7     9    10   ar
     8    10    11   ar
     9    11     1    1
    10     1     2   ar
    11     2     3   ar
    12     3     4   ar
    13     4     5   ar
    14     5     6   ar
    15     6    17    1
    16    17    18    1
    17    18    19    1
    18    19    20   ar
    19    20    21   ar
    20    21    22   ar
    21    22    23   ar
    22    23    24   ar
    23    18    25    1
    24    25    26   ar
    25    26    27   ar
    26    27    28   ar
    27    28    29   ar
    28    29    30   ar
    29    11    12   ar
    30    12     7   ar
    31     6     1   ar
    32    24    19   ar
    33    30    25   ar
@<TRIPOS>MOLECULE
*****
 30 33 0 0 0
SMALL
GASTEIGER

@<TRIPOS>ATOM
      1 C         140.8306  141.7950  168.0133 C.ar    1  UNL1        0.0773
      2 N         140.3103  142.7761  169.0216 N.ar    1  UNL1       -0.2442
      3 C         141.2499  143.4140  170.0016 C.ar    1  UNL1        0.0988
      4 C         142.7098  143.0708  169.9732 C.ar    1  UNL1        0.0204
      5 C         143.2302  142.0897  168.9648 C.ar    1  UNL1       -0.0012
      6 C         142.2906  141.4518  167.9849 C.ar    1  UNL1       -0.0038
      7 C         138.4115  139.1450  166.3177 C.ar    1  UNL1        0.0715
      8 C         138.0119  139.8813  165.0735 C.ar    1  UNL1        0.0039
      9 C         138.5519  141.2556  164.8092 C.ar    1  UNL1       -0.0000
     10 C         139.4914  141.8935  165.7891 C.ar    1  UNL1        0.0015
     11 C         139.8910  141.1571  167.0333 C.ar    1  UNL1        0.0173
     12 C         139.3510  139.7829  167.2976 C.ar    1  UNL1        0.0053
     13 F         137.3315  136.3965  166.8464 F       1  UNL1       -0.1659
     14 C         137.8715  137.7707  166.5821 C.3     1  UNL1        0.4186
     15 F         138.6939  137.2299  165.4502 F       1  UNL1       -0.1659
     16 F         137.0491  138.3116  167.7139 F       1  UNL1       -0.1659
     17 C         142.8109  140.4707  166.9765 C.3     1  UNL1        0.0367
     18 C         142.8934  140.8555  165.5291 C.3     1  UNL1        0.0520
     19 C         142.7209  139.8127  164.4648 C.ar    1  UNL1        0.0011
     20 C         141.5550  138.8706  164.5199 C.ar    1  UNL1       -0.0008
     21 C         141.3824  137.8278  163.4556 C.ar    1  UNL1        0.0204
     22 C         142.3757  137.7271  162.3361 C.ar    1  UNL1        0.0989
     23 N         143.5416  138.6693  162.2810 N.ar    1  UNL1       -0.2426
     24 C         143.7142  139.7121  163.3454 C.ar    1  UNL1        0.0949
     25 C         143.1486  142.2832  165.1460 C.ar    1  UNL1        0.0011
     26 C         142.1576  143.0197  164.2943 C.ar    1  UNL1       -0.0008
     27 C         142.4128  144.4474  163.9112 C.ar    1  UNL1        0.0204
     28 C         143.6590  145.1384  164.3798 C.ar    1  UNL1        0.0989
     29 N         144.6500  144.4018  165.2315 N.ar    1  UNL1       -0.2426
     30 C         144.3948  142.9742  165.6146 C.ar    1  UNL1        0.0949
@<TRIPOS>BOND
     1    13    14    1
     2    14    15    1
     3    14    16    1
     4    14     7    1
     5     7     8   ar
     6     8     9   ar
     7     9    10   ar
     8    10    11   ar
     9    11     1    1
    10     1     2   ar
    11     2     3   ar
    12     3     4   ar
    13     4     5   ar
    14     5     6   ar
    15     6    17    1
    16    17    18    1
    17    18    19    1
    18    19    20   ar
    19    20    21   ar
    20    21    22   ar
    21    22    23   ar
    22    23    24   ar
    23    18    25    1
    24    25    26   ar
    25    26    27   ar
    26    27    28   ar
    27    28    29   ar
    28    29    30   ar
    29    11    12   ar
    30    12     7   ar
    31     6     1   ar
    32    24    19   ar
    33    30    25   ar
@<TRIPOS>MOLECULE
*****
 30 33 0 0 0
SMALL
GASTEIGER

@<TRIPOS>ATOM
      1 C         140.8613  140.5541  168.0276 C.ar    1  UNL1        0.0773
      2 N         139.9173  140.0336  169.0707 N.ar    1  UNL1       -0.2442
      3 C         139.3434  140.9666  170.0955 C.ar    1  UNL1        0.0988
      4 C         139.7134  142.4201  170.0771 C.ar    1  UNL1        0.0204
      5 C         140.6574  142.9406  169.0340 C.ar    1  UNL1       -0.0012
      6 C         141.2313  142.0076  168.0093 C.ar    1  UNL1       -0.0038
      7 C         141.1647  138.2268  164.8273 C.ar    1  UNL1        0.0715
      8 C         142.5830  137.7552  164.9533 C.ar    1  UNL1        0.0039
      9 C         143.4274  138.2165  166.1040 C.ar    1  UNL1       -0.0000
     10 C         142.8535  139.1495  167.1287 C.ar    1  UNL1        0.0015
     11 C         141.4352  139.6211  167.0028 C.ar    1  UNL1        0.0173
     12 C         140.5908  139.1598  165.8521 C.ar    1  UNL1        0.0053
     13 F         139.4758  137.3042  162.5259 F       1  UNL1       -0.1659
     14 C         140.3202  137.7655  163.6766 C.3     1  UNL1        0.4186
     15 F         141.1558  136.5252  163.5607 F       1  UNL1       -0.1659
     16 F         139.4846  139.0058  163.7926 F       1  UNL1       -0.1659
     17 C         142.1753  142.5282  166.9662 C.3     1  UNL1        0.0367
     18 C         141.8026  142.4572  165.5150 C.3     1  UNL1        0.0520
     19 C         142.7327  141.8093  164.5325 C.ar    1  UNL1        0.0011
     20 C         144.1877  141.6586  164.8644 C.ar    1  UNL1       -0.0008
     21 C         145.1178  141.0107  163.8819 C.ar    1  UNL1        0.0204
     22 C         144.5928  140.5136  162.5676 C.ar    1  UNL1        0.0989
     23 N         143.1378  140.6643  162.2358 N.ar    1  UNL1       -0.2426
     24 C         142.2077  141.3122  163.2183 C.ar    1  UNL1        0.0949
     25 C         140.4997  143.0341  165.0462 C.ar    1  UNL1        0.0011
     26 C         139.2427  142.2209  165.1389 C.ar    1  UNL1       -0.0008
     27 C         137.9398  142.7978  164.6701 C.ar    1  UNL1        0.0204
     28 C         137.8940  144.1880  164.1086 C.ar    1  UNL1        0.0989
     29 N         139.1510  145.0013  164.0159 N.ar    1  UNL1       -0.2426
     30 C         140.4538  144.4243  164.4847 C.ar    1  UNL1        0.0949
@<TRIPOS>BOND
     1    13    14    1
     2    14    15    1
     3    14    16    1
     4    14     7    1
     5     7     8   ar
     6     8     9   ar
     7     9    10   ar
     8    10    11   ar
     9    11     1    1
    10     1     2   ar
    11     2     3   ar
    12     3     4   ar
    13     4     5   ar
    14     5     6   ar
    15     6    17    1
    16    17    18    1
    17    18    19    1
    18    19    20   ar
    19    20    21   ar
    20    21    22   ar
    21    22    23   ar
    22    23    24   ar
    23    18    25    1
    24    25    26   ar
    25    26    27   ar
    26    27    28   ar
    27    28    29   ar
    28    29    30   ar
    29    11    12   ar
    30    12     7   ar
    31     6     1   ar
    32    24    19   ar
    33    30    25   ar
@<TRIPOS>MOLECULE
*****
 30 33 0 0 0
SMALL
GASTEIGER

@<TRIPOS>ATOM
      1 C         141.3407  140.4470  168.0871 C.ar    1  UNL1        0.0773
      2 N         142.1327  139.7298  169.1398 N.ar    1  UNL1       -0.2442
      3 C         143.0842  140.4932  170.0128 C.ar    1  UNL1        0.0988
      4 C         143.2436  141.9738  169.8330 C.ar    1  UNL1        0.0204
      5 C         142.4515  142.6910  168.7802 C.ar    1  UNL1       -0.0012
      6 C         141.5001  141.9276  167.9073 C.ar    1  UNL1       -0.0038
      7 C         139.9318  138.2700  165.0828 C.ar    1  UNL1        0.0715
      8 C         138.4866  138.1568  165.4681 C.ar    1  UNL1        0.0039
      9 C         137.9927  138.8071  166.7264 C.ar    1  UNL1       -0.0000
     10 C         138.9441  139.5705  167.5994 C.ar    1  UNL1        0.0015
     11 C         140.3893  139.6836  167.2141 C.ar    1  UNL1        0.0173
     12 C         140.8831  139.0333  165.9558 C.ar    1  UNL1        0.0053
     13 F         140.9195  136.9694  162.5663 F       1  UNL1       -0.1659
     14 C         140.4256  137.6197  163.8246 C.3     1  UNL1        0.4186
     15 F         139.7084  138.6540  163.0086 F       1  UNL1       -0.1659
     16 F         141.1428  136.5854  164.6406 F       1  UNL1       -0.1659
     17 C         140.7080  142.6449  166.8545 C.3     1  UNL1        0.0367
     18 C         141.0691  142.4876  165.4071 C.3     1  UNL1        0.0520
     19 C         142.5023  142.2963  165.0082 C.ar    1  UNL1        0.0011
     20 C         142.9552  140.9815  164.4458 C.ar    1  UNL1       -0.0008
     21 C         144.3884  140.7902  164.0469 C.ar    1  UNL1        0.0204
     22 C         145.3689  141.9137  164.2103 C.ar    1  UNL1        0.0989
     23 N         144.9160  143.2285  164.7726 N.ar    1  UNL1       -0.2426
     24 C         143.4826  143.4197  165.1716 C.ar    1  UNL1        0.0949
     25 C         139.9968  142.5216  164.3587 C.ar    1  UNL1        0.0011
     26 C         138.6989  141.8061  164.5898 C.ar    1  UNL1       -0.0008
     27 C         137.6267  141.8402  163.5413 C.ar    1  UNL1        0.0204
     28 C         137.8524  142.5898  162.2618 C.ar    1  UNL1        0.0989
     29 N         139.1504  143.3054  162.0308 N.ar    1  UNL1       -0.2426
     30 C         140.2225  143.2713  163.0792 C.ar    1  UNL1        0.0949
@<TRIPOS>BOND
     1    13    14    1
     2    14    15    1
     3    14    16    1
     4    14     7    1
     5     7     8   ar
     6     8     9   ar
     7     9    10   ar
     8    10    11   ar
     9    11     1    1
    10     1     2   ar
    11     2     3   ar
    12     3     4   ar
    13     4     5   ar
    14     5     6   ar
    15     6    17    1
    16    17    18    1
    17    18    19    1
    18    19    20   ar
    19    20    21   ar
    20    21    22   ar
    21    22    23   ar
    22    23    24   ar
    23    18    25    1
    24    25    26   ar
    25    26    27   ar
    26    27    28   ar
    27    28    29   ar
    28    29    30   ar
    29    11    12   ar
    30    12     7   ar
    31     6     1   ar
    32    24    19   ar
    33    30    25   ar
@<TRIPOS>MOLECULE
*****
 30 33 0 0 0
SMALL
GASTEIGER

@<TRIPOS>ATOM
      1 C         140.8409  140.5435  168.0083 C.ar    1  UNL1        0.0773
      2 N         139.8967  140.0390  169.0589 N.ar    1  UNL1       -0.2442
      3 C         139.3592  140.9782  170.0977 C.ar    1  UNL1        0.0988
      4 C         139.7659  142.4220  170.0857 C.ar    1  UNL1        0.0204
      5 C         140.7101  142.9265  169.0350 C.ar    1  UNL1       -0.0012
      6 C         141.2476  141.9873  167.9963 C.ar    1  UNL1       -0.0038
      7 C         141.0290  138.1907  164.8179 C.ar    1  UNL1        0.0715
      8 C         142.4532  137.7258  164.8920 C.ar    1  UNL1        0.0039
      9 C         143.3400  138.2002  166.0050 C.ar    1  UNL1       -0.0000
     10 C         142.8026  139.1394  167.0437 C.ar    1  UNL1        0.0015
     11 C         141.3784  139.6042  166.9695 C.ar    1  UNL1        0.0173
     12 C         140.4916  139.1299  165.8566 C.ar    1  UNL1        0.0053
     13 F         139.2555  137.2419  162.5920 F       1  UNL1       -0.1659
     14 C         140.1423  137.7163  163.7049 C.3     1  UNL1        0.4186
     15 F         139.0135  138.5372  164.2544 F       1  UNL1       -0.1659
     16 F         141.2711  136.8954  163.1554 F       1  UNL1       -0.1659
     17 C         142.1918  142.4918  166.9456 C.3     1  UNL1        0.0367
     18 C         141.8071  142.4252  165.4973 C.3     1  UNL1        0.0520
     19 C         140.5060  143.0142  165.0390 C.ar    1  UNL1        0.0011
     20 C         139.2441  142.2086  165.1318 C.ar    1  UNL1       -0.0008
     21 C         137.9429  142.7976  164.6735 C.ar    1  UNL1        0.0204
     22 C         137.9036  144.1922  164.1225 C.ar    1  UNL1        0.0989
     23 N         139.1655  144.9978  164.0298 N.ar    1  UNL1       -0.2426
     24 C         140.4667  144.4087  164.4881 C.ar    1  UNL1        0.0949
     25 C         142.7237  141.7697  164.5072 C.ar    1  UNL1        0.0011
     26 C         144.1862  141.6367  164.8128 C.ar    1  UNL1       -0.0008
     27 C         145.1028  140.9811  163.8227 C.ar    1  UNL1        0.0204
     28 C         144.5568  140.4586  162.5270 C.ar    1  UNL1        0.0989
     29 N         143.0942  140.5916  162.2214 N.ar    1  UNL1       -0.2426
     30 C         142.1777  141.2471  163.2115 C.ar    1  UNL1        0.0949
@<TRIPOS>BOND
     1    13    14    1
     2    14    15    1
     3    14    16    1
     4    14     7    1
     5     7     8   ar
     6     8     9   ar
     7     9    10   ar
     8    10    11   ar
     9    11     1    1
    10     1     2   ar
    11     2     3   ar
    12     3     4   ar
    13     4     5   ar
    14     5     6   ar
    15     6    17    1
    16    17    18    1
    17    18    19    1
    18    19    20   ar
    19    20    21   ar
    20    21    22   ar
    21    22    23   ar
    22    23    24   ar
    23    18    25    1
    24    25    26   ar
    25    26    27   ar
    26    27    28   ar
    27    28    29   ar
    28    29    30   ar
    29    11    12   ar
    30    12     7   ar
    31     6     1   ar
    32    24    19   ar
    33    30    25   ar
@<TRIPOS>MOLECULE
*****
 30 33 0 0 0
SMALL
GASTEIGER

@<TRIPOS>ATOM
      1 C         141.3571  140.4273  168.1037 C.ar    1  UNL1        0.0773
      2 N         142.1585  139.6961  169.1395 N.ar    1  UNL1       -0.2442
      3 C         143.1153  140.4483  170.0163 C.ar    1  UNL1        0.0988
      4 C         143.2708  141.9317  169.8571 C.ar    1  UNL1        0.0204
      5 C         142.4693  142.6629  168.8212 C.ar    1  UNL1       -0.0012
      6 C         141.5125  141.9107  167.9445 C.ar    1  UNL1       -0.0038
      7 C         139.9387  138.2483  165.1053 C.ar    1  UNL1        0.0715
      8 C         138.4866  138.1707  165.4734 C.ar    1  UNL1        0.0039
      9 C         137.9914  138.8453  166.7183 C.ar    1  UNL1       -0.0000
     10 C         138.9482  139.5974  167.5950 C.ar    1  UNL1        0.0015
     11 C         140.4002  139.6751  167.2269 C.ar    1  UNL1        0.0173
     12 C         140.8954  139.0005  165.9820 C.ar    1  UNL1        0.0053
     13 F         140.9291  136.8992  162.6155 F       1  UNL1       -0.1659
     14 C         140.4339  137.5738  163.8604 C.3     1  UNL1        0.4186
     15 F         141.8464  137.7183  164.3440 F       1  UNL1       -0.1659
     16 F         139.0214  137.4293  163.3767 F       1  UNL1       -0.1659
     17 C         140.7111  142.6419  166.9085 C.3     1  UNL1        0.0367
     18 C         141.0642  142.5105  165.4566 C.3     1  UNL1        0.0520
     19 C         139.9888  142.5838  164.4136 C.ar    1  UNL1        0.0011
     20 C         138.6993  141.8438  164.6125 C.ar    1  UNL1       -0.0008
     21 C         137.6239  141.9172  163.5694 C.ar    1  UNL1        0.0204
     22 C         137.8379  142.7306  162.3274 C.ar    1  UNL1        0.0989
     23 N         139.1274  143.4707  162.1285 N.ar    1  UNL1       -0.2426
     24 C         140.2028  143.3973  163.1716 C.ar    1  UNL1        0.0949
     25 C         142.4929  142.3056  165.0478 C.ar    1  UNL1        0.0011
     26 C         142.9365  140.9768  164.5119 C.ar    1  UNL1       -0.0008
     27 C         144.3651  140.7720  164.1030 C.ar    1  UNL1        0.0204
     28 C         145.3501  141.8961  164.2302 C.ar    1  UNL1        0.0989
     29 N         144.9065  143.2250  164.7661 N.ar    1  UNL1       -0.2426
     30 C         143.4779  143.4298  165.1749 C.ar    1  UNL1        0.0949
@<TRIPOS>BOND
     1    13    14    1
     2    14    15    1
     3    14    16    1
     4    14     7    1
     5     7     8   ar
     6     8     9   ar
     7     9    10   ar
     8    10    11   ar
     9    11     1    1
    10     1     2   ar
    11     2     3   ar
    12     3     4   ar
    13     4     5   ar
    14     5     6   ar
    15     6    17    1
    16    17    18    1
    17    18    19    1
    18    19    20   ar
    19    20    21   ar
    20    21    22   ar
    21    22    23   ar
    22    23    24   ar
    23    18    25    1
    24    25    26   ar
    25    26    27   ar
    26    27    28   ar
    27    28    29   ar
    28    29    30   ar
    29    11    12   ar
    30    12     7   ar
    31     6     1   ar
    32    24    19   ar
    33    30    25   ar
@<TRIPOS>MOLECULE
*****
 30 33 0 0 0
SMALL
GASTEIGER

@<TRIPOS>ATOM
      1 C         142.3060  140.4120  167.8126 C.ar    1  UNL1        0.0773
      2 N         142.9919  139.4098  168.6930 N.ar    1  UNL1       -0.2442
      3 C         142.3483  138.9738  169.9759 C.ar    1  UNL1        0.0988
      4 C         141.0189  139.5400  170.3783 C.ar    1  UNL1        0.0204
      5 C         140.3330  140.5422  169.4978 C.ar    1  UNL1       -0.0012
      6 C         140.9766  140.9782  168.2150 C.ar    1  UNL1       -0.0038
      7 C         143.8053  142.7434  164.9725 C.ar    1  UNL1        0.0715
      8 C         144.2367  141.7202  163.9641 C.ar    1  UNL1        0.0039
      9 C         144.0246  140.2608  164.2386 C.ar    1  UNL1       -0.0000
     10 C         143.3810  139.8248  165.5214 C.ar    1  UNL1        0.0015
     11 C         142.9496  140.8480  166.5297 C.ar    1  UNL1        0.0173
     12 C         143.1618  142.3074  166.2553 C.ar    1  UNL1        0.0053
     13 F         144.2296  145.6621  164.4235 F       1  UNL1       -0.1659
     14 C         144.0175  144.2028  164.6980 C.3     1  UNL1        0.4186
     15 F         144.9964  144.2738  165.8323 F       1  UNL1       -0.1659
     16 F         143.0386  144.1317  163.5636 F       1  UNL1       -0.1659
     17 C         140.2907  141.9804  167.3345 C.3     1  UNL1        0.0367
     18 C         139.5399  141.5217  166.1196 C.3     1  UNL1        0.0520
     19 C         139.1649  140.0771  165.9707 C.ar    1  UNL1        0.0011
     20 C         139.9308  139.1966  165.0283 C.ar    1  UNL1       -0.0008
     21 C         139.5558  137.7519  164.8795 C.ar    1  UNL1        0.0204
     22 C         138.4148  137.1876  165.6730 C.ar    1  UNL1        0.0989
     23 N         137.6488  138.0681  166.6154 N.ar    1  UNL1       -0.2426
     24 C         138.0239  139.5128  166.7643 C.ar    1  UNL1        0.0949
     25 C         139.1642  142.5079  165.0535 C.ar    1  UNL1        0.0011
     26 C         139.9727  143.7579  164.8696 C.ar    1  UNL1       -0.0008
     27 C         139.5970  144.7440  163.8035 C.ar    1  UNL1        0.0204
     28 C         138.4129  144.4800  162.9213 C.ar    1  UNL1        0.0989
     29 N         137.6044  143.2299  163.1053 N.ar    1  UNL1       -0.2426
     30 C         137.9801  142.2439  164.1714 C.ar    1  UNL1        0.0949
@<TRIPOS>BOND
     1    13    14    1
     2    14    15    1
     3    14    16    1
     4    14     7    1
     5     7     8   ar
     6     8     9   ar
     7     9    10   ar
     8    10    11   ar
     9    11     1    1
    10     1     2   ar
    11     2     3   ar
    12     3     4   ar
    13     4     5   ar
    14     5     6   ar
    15     6    17    1
    16    17    18    1
    17    18    19    1
    18    19    20   ar
    19    20    21   ar
    20    21    22   ar
    21    22    23   ar
    22    23    24   ar
    23    18    25    1
    24    25    26   ar
    25    26    27   ar
    26    27    28   ar
    27    28    29   ar
    28    29    30   ar
    29    11    12   ar
    30    12     7   ar
    31     6     1   ar
    32    24    19   ar
    33    30    25   ar
@<TRIPOS>MOLECULE
*****
 30 33 0 0 0
SMALL
GASTEIGER

@<TRIPOS>ATOM
      1 C         139.4780  141.8082  164.0584 C.ar    1  UNL1        0.0773
      2 N         139.2638  142.3542  162.6779 N.ar    1  UNL1       -0.2442
      3 C         139.3836  143.8284  162.4274 C.ar    1  UNL1        0.0988
      4 C         139.7175  144.7564  163.5576 C.ar    1  UNL1        0.0204
      5 C         139.9316  144.2103  164.9382 C.ar    1  UNL1       -0.0012
      6 C         139.8119  142.7363  165.1886 C.ar    1  UNL1       -0.0038
      7 C         138.4025  138.3585  165.6994 C.ar    1  UNL1        0.0715
      8 C         139.1187  137.3860  164.8099 C.ar    1  UNL1        0.0039
      9 C         139.9547  137.8875  163.6699 C.ar    1  UNL1       -0.0000
     10 C         140.0744  139.3616  163.4194 C.ar    1  UNL1        0.0015
     11 C         139.3582  140.3341  164.3089 C.ar    1  UNL1        0.0173
     12 C         138.5223  139.8325  165.4489 C.ar    1  UNL1        0.0053
     13 F         136.7306  137.3553  167.9794 F       1  UNL1       -0.1659
     14 C         137.5666  137.8569  166.8394 C.3     1  UNL1        0.4186
     15 F         137.4470  139.2559  167.3673 F       1  UNL1       -0.1659
     16 F         137.6861  136.4579  166.3116 F       1  UNL1       -0.1659
     17 C         140.0260  142.1902  166.5692 C.3     1  UNL1        0.0367
     18 C         141.4032  141.7965  167.0147 C.3     1  UNL1        0.0520
     19 C         141.9600  142.3388  168.2976 C.ar    1  UNL1        0.0011
     20 C         143.3986  142.1017  168.6503 C.ar    1  UNL1       -0.0008
     21 C         143.9555  142.6439  169.9332 C.ar    1  UNL1        0.0204
     22 C         143.0738  143.4233  170.8634 C.ar    1  UNL1        0.0989
     23 N         141.6353  143.6605  170.5107 N.ar    1  UNL1       -0.2426
     24 C         141.0784  143.1181  169.2277 C.ar    1  UNL1        0.0949
     25 C         142.2234  140.8605  166.1773 C.ar    1  UNL1        0.0011
     26 C         142.2147  139.3893  166.4697 C.ar    1  UNL1       -0.0008
     27 C         143.0349  138.4534  165.6323 C.ar    1  UNL1        0.0204
     28 C         143.8639  138.9886  164.5025 C.ar    1  UNL1        0.0989
     29 N         143.8726  140.4599  164.2102 N.ar    1  UNL1       -0.2426
     30 C         143.0524  141.3958  165.0476 C.ar    1  UNL1        0.0949
@<TRIPOS>BOND
     1    13    14    1
     2    14    15    1
     3    14    16    1
     4    14     7    1
     5     7     8   ar
     6     8     9   ar
     7     9    10   ar
     8    10    11   ar
     9    11     1    1
    10     1     2   ar
    11     2     3   ar
    12     3     4   ar
    13     4     5   ar
    14     5     6   ar
    15     6    17    1
    16    17    18    1
    17    18    19    1
    18    19    20   ar
    19    20    21   ar
    20    21    22   ar
    21    22    23   ar
    22    23    24   ar
    23    18    25    1
    24    25    26   ar
    25    26    27   ar
    26    27    28   ar
    27    28    29   ar
    28    29    30   ar
    29    11    12   ar
    30    12     7   ar
    31     6     1   ar
    32    24    19   ar
    33    30    25   ar
@<TRIPOS>MOLECULE
*****
 30 33 0 0 0
SMALL
GASTEIGER

@<TRIPOS>ATOM
      1 C         142.1308  141.3987  168.0227 C.ar    1  UNL1        0.0773
      2 N         142.8938  142.2699  168.9760 N.ar    1  UNL1       -0.2442
      3 C         142.1573  143.1276  169.9619 C.ar    1  UNL1        0.0988
      4 C         140.6577  143.1141  169.9944 C.ar    1  UNL1        0.0204
      5 C         139.8946  142.2429  169.0411 C.ar    1  UNL1       -0.0012
      6 C         140.6312  141.3853  168.0553 C.ar    1  UNL1       -0.0038
      7 C         144.2225  140.3029  164.8331 C.ar    1  UNL1        0.0715
      8 C         144.3403  138.8257  165.0652 C.ar    1  UNL1        0.0039
      9 C         143.7216  138.2061  166.2831 C.ar    1  UNL1       -0.0000
     10 C         142.9851  139.0638  167.2689 C.ar    1  UNL1        0.0015
     11 C         142.8673  140.5410  167.0369 C.ar    1  UNL1        0.0173
     12 C         143.4860  141.1605  165.8189 C.ar    1  UNL1        0.0053
     13 F         145.4600  141.5420  162.3972 F       1  UNL1       -0.1659
     14 C         144.8412  140.9225  163.6152 C.3     1  UNL1        0.4186
     15 F         144.3913  139.7524  162.7914 F       1  UNL1       -0.1659
     16 F         145.2912  142.0925  164.4389 F       1  UNL1       -0.1659
     17 C         139.8681  140.5140  167.1019 C.3     1  UNL1        0.0367
     18 C         139.9160  140.7928  165.6288 C.3     1  UNL1        0.0520
     19 C         139.5347  142.1472  165.1090 C.ar    1  UNL1        0.0011
     20 C         138.1305  142.4062  164.6497 C.ar    1  UNL1       -0.0008
     21 C         137.7492  143.7606  164.1299 C.ar    1  UNL1        0.0204
     22 C         138.7722  144.8560  164.0694 C.ar    1  UNL1        0.0989
     23 N         140.1765  144.5969  164.5286 N.ar    1  UNL1       -0.2426
     24 C         140.5577  143.2425  165.0485 C.ar    1  UNL1        0.0949
     25 C         140.3452  139.7171  164.6755 C.ar    1  UNL1        0.0011
     26 C         140.2527  138.2757  165.0802 C.ar    1  UNL1       -0.0008
     27 C         140.6819  137.2000  164.1269 C.ar    1  UNL1        0.0204
     28 C         141.2035  137.5657  162.7689 C.ar    1  UNL1        0.0989
     29 N         141.2960  139.0072  162.3642 N.ar    1  UNL1       -0.2426
     30 C         140.8669  140.0828  163.3175 C.ar    1  UNL1        0.0949
@<TRIPOS>BOND
     1    13    14    1
     2    14    15    1
     3    14    16    1
     4    14     7    1
     5     7     8   ar
     6     8     9   ar
     7     9    10   ar
     8    10    11   ar
     9    11     1    1
    10     1     2   ar
    11     2     3   ar
    12     3     4   ar
    13     4     5   ar
    14     5     6   ar
    15     6    17    1
    16    17    18    1
    17    18    19    1
    18    19    20   ar
    19    20    21   ar
    20    21    22   ar
    21    22    23   ar
    22    23    24   ar
    23    18    25    1
    24    25    26   ar
    25    26    27   ar
    26    27    28   ar
    27    28    29   ar
    28    29    30   ar
    29    11    12   ar
    30    12     7   ar
    31     6     1   ar
    32    24    19   ar
    33    30    25   ar
