@<TRIPOS>MOLECULE
*****
 41 46 0 0 0
SMALL
GASTEIGER

@<TRIPOS>ATOM
      1 C         144.3540  139.4587  163.5339 C.3     1  UNL1        0.0700
      2 C         144.0120  139.2282  164.9760 C.3     1  UNL1        0.0193
      3 C         142.7632  138.4814  165.3405 C.3     1  UNL1        0.0286
      4 C         141.8565  137.9652  164.2629 C.3     1  UNL1        0.0932
      5 C         142.1985  138.1958  162.8207 C.3     1  UNL1        0.0286
      6 C         143.4473  138.9425  162.4562 C.3     1  UNL1        0.0193
      7 O         142.5297  138.3688  164.0142 O.3     1  UNL1       -0.3572
      8 C         143.6589  139.0440  163.6846 C.3     1  UNL1        0.1562
      9 N         145.6028  140.2055  163.1694 N.3     1  UNL1       -0.2926
     10 H         146.3523  139.8259  163.7478 H       1  UNL1        0.1236
     11 C         145.6548  141.6973  163.3173 C.3     1  UNL1        0.1148
     12 C         143.8613  143.5588  163.5781 C.ar    1  UNL1       -0.0082
     13 C         144.5699  142.5479  162.7261 C.ar    1  UNL1        0.0722
     14 N         144.1936  142.3875  161.2830 N.ar    1  UNL1       -0.2308
     15 C         143.1087  143.2381  160.6918 C.ar    1  UNL1        0.1679
     16 C         142.4001  144.2490  161.5437 C.ar    1  UNL1        0.1664
     17 C         142.7764  144.4094  162.9869 C.ar    1  UNL1        0.0122
     18 C         142.0677  145.4203  163.8389 C.3     1  UNL1        0.0340
     19 O         141.3152  145.0996  160.9526 O.3     1  UNL1       -0.4631
     20 C         140.9389  144.9392  159.5095 C.3     1  UNL1        0.2898
     21 C         141.6476  143.9283  158.6575 C.2     1  UNL1        0.2718
     22 O         141.2713  143.7680  157.2143 O.2     1  UNL1       -0.2707
     23 N         142.7324  143.0777  159.2486 N.am    1  UNL1       -0.2639
     24 H         143.1975  142.4142  158.6894 H       1  UNL1        0.1565
     25 C         143.7033  142.7632  166.0463 C.3     1  UNL1        0.0051
     26 C         144.2376  143.7191  165.0213 C.3     1  UNL1        0.0274
     27 C         140.6077  137.2184  164.6273 C.3     1  UNL1        0.0320
     28 C         139.3705  137.9714  165.0175 C.3     1  UNL1        0.0327
     29 C         138.9805  139.2121  164.2700 C.ar    1  UNL1        0.0261
     30 C         138.2917  139.1022  162.9420 C.ar    1  UNL1        0.1566
     31 F         137.9929  137.7516  162.3616 F       1  UNL1       -0.2028
     32 C         137.9016  140.3427  162.1945 C.ar    1  UNL1        0.1281
     33 N         138.2004  141.6933  162.7749 N.ar    1  UNL1       -0.2400
     34 C         138.8892  141.8032  164.1029 C.ar    1  UNL1        0.0990
     35 C         139.1880  143.1536  164.6833 C.ar    1  UNL1        0.0254
     36 C         139.8768  143.2636  166.0112 C.ar    1  UNL1        0.0593
     37 C         140.2668  142.0230  166.7588 C.ar    1  UNL1        0.2250
     38 N         139.9680  140.6725  166.1784 N.ar    1  UNL1       -0.2104
     39 C         139.2792  140.5625  164.8504 C.ar    1  UNL1        0.1002
     40 O         140.9556  142.1329  168.0867 O.3     1  UNL1       -0.4561
     41 C         140.4326  143.0788  169.1269 C.3     1  UNL1        0.2542
@<TRIPOS>BOND
     1    25    26    1
     2    26    12    1
     3    12    13   ar
     4    13    11    1
     5    11     9    1
     6     9     1    1
     7     1     2    1
     8     2     3    1
     9     3     4    1
    10     4    27    1
    11    27    28    1
    12    28    29    1
    13    29    30   ar
    14    30    31    1
    15    30    32   ar
    16    32    33   ar
    17    33    34   ar
    18    34    35   ar
    19    35    36   ar
    20    36    37   ar
    21    37    40    1
    22    40    41    1
    23    37    38   ar
    24    38    39   ar
    25     4     5    1
    26     5     6    1
    27     4     7    1
    28     7     8    1
    29    13    14   ar
    30    14    15   ar
    31    15    16   ar
    32    16    17   ar
    33    17    18    1
    34    16    19    1
    35    19    20    1
    36    20    21    1
    37    21    22    2
    38    21    23   am
    39    17    12   ar
    40     6     1    1
    41    23    15    1
    42     8     1    1
    43    39    29   ar
    44    39    34   ar
    45     9    10    1
    46    23    24    1
@<TRIPOS>MOLECULE
*****
 41 46 0 0 0
SMALL
GASTEIGER

@<TRIPOS>ATOM
      1 C         137.8588  140.0995  162.1278 C.3     1  UNL1        0.0700
      2 C         137.6788  140.4504  163.5750 C.3     1  UNL1        0.0193
      3 C         137.6819  141.8877  164.0042 C.3     1  UNL1        0.0286
      4 C         137.8650  142.9741  162.9862 C.3     1  UNL1        0.0932
      5 C         138.0450  142.6230  161.5389 C.3     1  UNL1        0.0286
      6 C         138.0419  141.1858  161.1098 C.3     1  UNL1        0.0193
      7 O         137.8704  142.2008  162.7031 O.3     1  UNL1       -0.3572
      8 C         137.8675  140.9012  162.3151 C.3     1  UNL1        0.1562
      9 N         137.8556  138.6622  161.6986 N.3     1  UNL1       -0.2926
     10 H         137.3542  138.1412  162.4180 H       1  UNL1        0.1236
     11 C         139.1530  137.9450  161.4696 C.3     1  UNL1        0.1148
     12 C         140.9754  138.1599  163.3089 C.ar    1  UNL1       -0.0082
     13 C         140.4376  138.5430  161.9620 C.ar    1  UNL1        0.0722
     14 N         141.1843  139.5239  161.1076 N.ar    1  UNL1       -0.2308
     15 C         142.4689  140.1219  161.5999 C.ar    1  UNL1        0.1679
     16 C         143.0067  139.7388  162.9468 C.ar    1  UNL1        0.1664
     17 C         142.2599  138.7578  163.8012 C.ar    1  UNL1        0.0122
     18 C         142.7978  138.3747  165.1481 C.3     1  UNL1        0.0340
     19 O         144.2912  140.3367  163.4392 O.3     1  UNL1       -0.4631
     20 C         145.0379  141.3177  162.5847 C.3     1  UNL1        0.2898
     21 C         144.5001  141.7007  161.2379 C.2     1  UNL1        0.2718
     22 O         145.2468  142.6818  160.3834 O.2     1  UNL1       -0.2707
     23 N         143.2156  141.1028  160.7455 N.am    1  UNL1       -0.2639
     24 H         142.8626  141.3543  159.8615 H       1  UNL1        0.1565
     25 C         139.1793  137.6635  165.1193 C.3     1  UNL1        0.0051
     26 C         140.2287  137.1789  164.1633 C.3     1  UNL1        0.0274
     27 C         137.8681  144.4113  163.4153 C.3     1  UNL1        0.0320
     28 C         138.8813  144.8947  164.4101 C.3     1  UNL1        0.0327
     29 C         140.3295  144.5441  164.2365 C.ar    1  UNL1        0.0261
     30 C         141.1239  145.1663  163.1266 C.ar    1  UNL1        0.1566
     31 F         140.4702  146.1390  162.1903 F       1  UNL1       -0.2028
     32 C         142.5719  144.8157  162.9529 C.ar    1  UNL1        0.1281
     33 N         143.2257  143.8430  163.8892 N.ar    1  UNL1       -0.2400
     34 C         142.4312  143.2208  164.9991 C.ar    1  UNL1        0.0990
     35 C         143.0849  142.2481  165.9353 C.ar    1  UNL1        0.0254
     36 C         142.2905  141.6260  167.0452 C.ar    1  UNL1        0.0593
     37 C         140.8424  141.9766  167.2189 C.ar    1  UNL1        0.2250
     38 N         140.1887  142.9493  166.2826 N.ar    1  UNL1       -0.2104
     39 C         140.9831  143.5714  165.1727 C.ar    1  UNL1        0.1002
     40 O         140.0480  141.3544  168.3288 O.3     1  UNL1       -0.4561
     41 C         139.4760  139.9780  168.1614 C.3     1  UNL1        0.2542
@<TRIPOS>BOND
     1    25    26    1
     2    26    12    1
     3    12    13   ar
     4    13    11    1
     5    11     9    1
     6     9     1    1
     7     1     2    1
     8     2     3    1
     9     3     4    1
    10     4    27    1
    11    27    28    1
    12    28    29    1
    13    29    30   ar
    14    30    31    1
    15    30    32   ar
    16    32    33   ar
    17    33    34   ar
    18    34    35   ar
    19    35    36   ar
    20    36    37   ar
    21    37    40    1
    22    40    41    1
    23    37    38   ar
    24    38    39   ar
    25     4     5    1
    26     5     6    1
    27     4     7    1
    28     7     8    1
    29    13    14   ar
    30    14    15   ar
    31    15    16   ar
    32    16    17   ar
    33    17    18    1
    34    16    19    1
    35    19    20    1
    36    20    21    1
    37    21    22    2
    38    21    23   am
    39    17    12   ar
    40     6     1    1
    41    23    15    1
    42     8     1    1
    43    39    29   ar
    44    39    34   ar
    45     9    10    1
    46    23    24    1
@<TRIPOS>MOLECULE
*****
 41 46 0 0 0
SMALL
GASTEIGER

@<TRIPOS>ATOM
      1 C         137.9084  140.3550  163.6153 C.3     1  UNL1        0.0700
      2 C         138.6613  139.6910  162.5009 C.3     1  UNL1        0.0193
      3 C         139.6918  138.6458  162.8104 C.3     1  UNL1        0.0286
      4 C         139.9692  138.2647  164.2344 C.3     1  UNL1        0.0932
      5 C         139.2162  138.9288  165.3489 C.3     1  UNL1        0.0286
      6 C         138.1858  139.9739  165.0393 C.3     1  UNL1        0.0193
      7 O         139.3954  138.8428  164.1141 O.3     1  UNL1       -0.3572
      8 C         138.4637  139.7879  163.8342 C.3     1  UNL1        0.1562
      9 N         136.8780  141.4002  163.3058 N.3     1  UNL1       -0.2926
     10 H         136.5438  141.2133  162.3603 H       1  UNL1        0.1236
     11 C         137.2454  142.8536  163.3558 C.3     1  UNL1        0.1148
     12 C         139.5696  144.0131  163.2934 C.ar    1  UNL1       -0.0082
     13 C         138.4262  143.3559  162.5788 C.ar    1  UNL1        0.0722
     14 N         138.4635  143.2010  161.0874 N.ar    1  UNL1       -0.2308
     15 C         139.6442  143.7033  160.3104 C.ar    1  UNL1        0.1679
     16 C         140.7877  144.3605  161.0250 C.ar    1  UNL1        0.1664
     17 C         140.7503  144.5154  162.5166 C.ar    1  UNL1        0.0122
     18 C         141.8938  145.1726  163.2312 C.3     1  UNL1        0.0340
     19 O         141.9684  144.8627  160.2481 O.3     1  UNL1       -0.4631
     20 C         142.0057  144.7078  158.7567 C.3     1  UNL1        0.2898
     21 C         140.8622  144.0506  158.0420 C.2     1  UNL1        0.2718
     22 O         140.8996  143.8957  156.5505 O.2     1  UNL1       -0.2707
     23 N         139.6815  143.5484  158.8189 N.am    1  UNL1       -0.2639
     24 H         138.9310  143.1170  158.3499 H       1  UNL1        0.1565
     25 C         140.0317  143.0620  165.6666 C.3     1  UNL1        0.0051
     26 C         139.5323  144.1680  164.7850 C.3     1  UNL1        0.0274
     27 C         140.9996  137.2195  164.5439 C.3     1  UNL1        0.0320
     28 C         142.3521  137.6262  165.0491 C.3     1  UNL1        0.0327
     29 C         142.9620  138.9213  164.6007 C.ar    1  UNL1        0.0261
     30 C         143.5099  139.0506  163.2104 C.ar    1  UNL1        0.1566
     31 F         143.4480  137.8848  162.2684 F       1  UNL1       -0.2028
     32 C         144.1197  140.3456  162.7620 C.ar    1  UNL1        0.1281
     33 N         144.1816  141.5113  163.7040 N.ar    1  UNL1       -0.2400
     34 C         143.6337  141.3820  165.0943 C.ar    1  UNL1        0.0990
     35 C         143.6956  142.5477  166.0362 C.ar    1  UNL1        0.0254
     36 C         143.1477  142.4184  167.4266 C.ar    1  UNL1        0.0593
     37 C         142.5378  141.1235  167.8750 C.ar    1  UNL1        0.2250
     38 N         142.4759  139.9577  166.9330 N.ar    1  UNL1       -0.2104
     39 C         143.0239  140.0870  165.5427 C.ar    1  UNL1        0.1002
     40 O         141.9899  140.9942  169.2653 O.3     1  UNL1       -0.4561
     41 C         140.9840  139.9266  169.5788 C.3     1  UNL1        0.2542
@<TRIPOS>BOND
     1    25    26    1
     2    26    12    1
     3    12    13   ar
     4    13    11    1
     5    11     9    1
     6     9     1    1
     7     1     2    1
     8     2     3    1
     9     3     4    1
    10     4    27    1
    11    27    28    1
    12    28    29    1
    13    29    30   ar
    14    30    31    1
    15    30    32   ar
    16    32    33   ar
    17    33    34   ar
    18    34    35   ar
    19    35    36   ar
    20    36    37   ar
    21    37    40    1
    22    40    41    1
    23    37    38   ar
    24    38    39   ar
    25     4     5    1
    26     5     6    1
    27     4     7    1
    28     7     8    1
    29    13    14   ar
    30    14    15   ar
    31    15    16   ar
    32    16    17   ar
    33    17    18    1
    34    16    19    1
    35    19    20    1
    36    20    21    1
    37    21    22    2
    38    21    23   am
    39    17    12   ar
    40     6     1    1
    41    23    15    1
    42     8     1    1
    43    39    29   ar
    44    39    34   ar
    45     9    10    1
    46    23    24    1
@<TRIPOS>MOLECULE
*****
 41 46 0 0 0
SMALL
GASTEIGER

@<TRIPOS>ATOM
      1 C         142.2608  144.9107  162.7612 C.3     1  UNL1        0.0700
      2 C         142.6457  144.0060  161.6284 C.3     1  UNL1        0.0193
      3 C         143.7487  143.0055  161.8090 C.3     1  UNL1        0.0286
      4 C         144.4667  142.9098  163.1225 C.3     1  UNL1        0.0932
      5 C         144.0817  143.8146  164.2554 C.3     1  UNL1        0.0286
      6 C         142.9788  144.8150  164.0747 C.3     1  UNL1        0.0193
      7 O         143.8688  143.4736  163.0711 O.3     1  UNL1       -0.3572
      8 C         142.8715  144.3783  162.9077 C.3     1  UNL1        0.1562
      9 N         141.1579  145.9111  162.5805 N.3     1  UNL1       -0.2926
     10 H         141.4012  146.7232  163.1476 H       1  UNL1        0.1236
     11 C         139.7469  145.5438  162.9329 C.3     1  UNL1        0.1148
     12 C         138.8410  143.2306  163.6937 C.ar    1  UNL1       -0.0082
     13 C         139.2205  144.1801  162.5962 C.ar    1  UNL1        0.0722
     14 N         139.0736  143.7659  161.1621 N.ar    1  UNL1       -0.2308
     15 C         138.5472  142.4022  160.8253 C.ar    1  UNL1        0.1679
     16 C         138.1677  141.4528  161.9228 C.ar    1  UNL1        0.1664
     17 C         138.3146  141.8670  163.3571 C.ar    1  UNL1        0.0122
     18 C         137.9350  140.9176  164.4546 C.3     1  UNL1        0.0340
     19 O         137.6413  140.0891  161.5862 O.3     1  UNL1       -0.4631
     20 C         137.4944  139.6750  160.1520 C.3     1  UNL1        0.2898
     21 C         137.8740  140.6244  159.0545 C.2     1  UNL1        0.2718
     22 O         137.7271  140.2102  157.6203 O.2     1  UNL1       -0.2707
     23 N         138.4004  141.9880  159.3912 N.am    1  UNL1       -0.2639
     24 H         138.6495  142.6112  158.6709 H       1  UNL1        0.1565
     25 C         140.2255  143.2777  165.8917 C.3     1  UNL1        0.0051
     26 C         138.9879  143.6449  165.1279 C.3     1  UNL1        0.0274
     27 C         145.5696  141.9093  163.3032 C.3     1  UNL1        0.0320
     28 C         145.2870  140.5928  163.9641 C.3     1  UNL1        0.0327
     29 C         143.9417  139.9482  163.8070 C.ar    1  UNL1        0.0261
     30 C         143.5623  139.3126  162.5024 C.ar    1  UNL1        0.1566
     31 F         144.5282  139.3217  161.3547 F       1  UNL1       -0.2028
     32 C         142.2170  138.6680  162.3453 C.ar    1  UNL1        0.1281
     33 N         141.2511  138.6590  163.4929 N.ar    1  UNL1       -0.2400
     34 C         141.6305  139.2945  164.7975 C.ar    1  UNL1        0.0990
     35 C         140.6646  139.2855  165.9451 C.ar    1  UNL1        0.0254
     36 C         141.0440  139.9210  167.2498 C.ar    1  UNL1        0.0593
     37 C         142.3893  140.5656  167.4069 C.ar    1  UNL1        0.2250
     38 N         143.3552  140.5747  166.2593 N.ar    1  UNL1       -0.2104
     39 C         142.9758  139.9391  164.9546 C.ar    1  UNL1        0.1002
     40 O         142.7687  141.2011  168.7115 O.3     1  UNL1       -0.4561
     41 C         142.1656  142.5158  169.1088 C.3     1  UNL1        0.2542
@<TRIPOS>BOND
     1    25    26    1
     2    26    12    1
     3    12    13   ar
     4    13    11    1
     5    11     9    1
     6     9     1    1
     7     1     2    1
     8     2     3    1
     9     3     4    1
    10     4    27    1
    11    27    28    1
    12    28    29    1
    13    29    30   ar
    14    30    31    1
    15    30    32   ar
    16    32    33   ar
    17    33    34   ar
    18    34    35   ar
    19    35    36   ar
    20    36    37   ar
    21    37    40    1
    22    40    41    1
    23    37    38   ar
    24    38    39   ar
    25     4     5    1
    26     5     6    1
    27     4     7    1
    28     7     8    1
    29    13    14   ar
    30    14    15   ar
    31    15    16   ar
    32    16    17   ar
    33    17    18    1
    34    16    19    1
    35    19    20    1
    36    20    21    1
    37    21    22    2
    38    21    23   am
    39    17    12   ar
    40     6     1    1
    41    23    15    1
    42     8     1    1
    43    39    29   ar
    44    39    34   ar
    45     9    10    1
    46    23    24    1
@<TRIPOS>MOLECULE
*****
 41 46 0 0 0
SMALL
GASTEIGER

@<TRIPOS>ATOM
      1 C         137.8652  140.0704  162.1126 C.3     1  UNL1        0.0700
      2 C         137.7206  140.3828  163.5725 C.3     1  UNL1        0.0193
      3 C         137.7235  141.8087  164.0383 C.3     1  UNL1        0.0286
      4 C         137.8709  142.9222  163.0441 C.3     1  UNL1        0.0932
      5 C         138.0155  142.6097  161.5841 C.3     1  UNL1        0.0286
      6 C         138.0126  141.1839  161.1184 C.3     1  UNL1        0.0193
      7 O         137.8750  142.1565  162.7412 O.3     1  UNL1       -0.3572
      8 C         137.8724  140.8672  162.3201 C.3     1  UNL1        0.1562
      9 N         137.8624  138.6446  161.6469 N.3     1  UNL1       -0.2926
     10 H         137.5738  138.0755  162.4427 H       1  UNL1        0.1236
     11 C         139.1195  138.0292  161.1076 C.3     1  UNL1        0.1148
     12 C         141.4892  139.0742  160.9004 C.ar    1  UNL1       -0.0082
     13 C         140.4453  138.3739  161.7189 C.ar    1  UNL1        0.0722
     14 N         140.7272  138.0182  163.1486 N.ar    1  UNL1       -0.2308
     15 C         142.0530  138.3629  163.7598 C.ar    1  UNL1        0.1679
     16 C         143.0968  139.0632  162.9414 C.ar    1  UNL1        0.1664
     17 C         142.8149  139.4188  161.5116 C.ar    1  UNL1        0.0122
     18 C         143.8588  140.1191  160.6931 C.3     1  UNL1        0.0340
     19 O         144.4226  139.4078  163.5526 O.3     1  UNL1       -0.4631
     20 C         144.7044  139.0522  164.9822 C.3     1  UNL1        0.2898
     21 C         143.6605  138.3519  165.8007 C.2     1  UNL1        0.2718
     22 O         143.9424  137.9962  167.2305 O.2     1  UNL1       -0.2707
     23 N         142.3348  138.0072  165.1895 N.am    1  UNL1       -0.2639
     24 H         141.6497  137.5476  165.7267 H       1  UNL1        0.1565
     25 C         141.5266  138.4532  158.3779 C.3     1  UNL1        0.0051
     26 C         141.2073  139.4298  159.4706 C.3     1  UNL1        0.0274
     27 C         137.8738  144.3480  163.5098 C.3     1  UNL1        0.0320
     28 C         138.9516  144.8332  164.4333 C.3     1  UNL1        0.0327
     29 C         140.3864  144.4964  164.1538 C.ar    1  UNL1        0.0261
     30 C         141.0823  145.1021  162.9710 C.ar    1  UNL1        0.1566
     31 F         140.3434  146.0445  162.0677 F       1  UNL1       -0.2028
     32 C         142.5170  144.7653  162.6915 C.ar    1  UNL1        0.1281
     33 N         143.2559  143.8229  163.5948 N.ar    1  UNL1       -0.2400
     34 C         142.5600  143.2172  164.7776 C.ar    1  UNL1        0.0990
     35 C         143.2989  142.2748  165.6809 C.ar    1  UNL1        0.0254
     36 C         142.6030  141.6691  166.8636 C.ar    1  UNL1        0.0593
     37 C         141.1683  142.0059  167.1431 C.ar    1  UNL1        0.2250
     38 N         140.4294  142.9483  166.2398 N.ar    1  UNL1       -0.2104
     39 C         141.1252  143.5540  165.0571 C.ar    1  UNL1        0.1002
     40 O         140.4724  141.4002  168.3259 O.3     1  UNL1       -0.4561
     41 C         139.5486  140.2338  168.1362 C.3     1  UNL1        0.2542
@<TRIPOS>BOND
     1    25    26    1
     2    26    12    1
     3    12    13   ar
     4    13    11    1
     5    11     9    1
     6     9     1    1
     7     1     2    1
     8     2     3    1
     9     3     4    1
    10     4    27    1
    11    27    28    1
    12    28    29    1
    13    29    30   ar
    14    30    31    1
    15    30    32   ar
    16    32    33   ar
    17    33    34   ar
    18    34    35   ar
    19    35    36   ar
    20    36    37   ar
    21    37    40    1
    22    40    41    1
    23    37    38   ar
    24    38    39   ar
    25     4     5    1
    26     5     6    1
    27     4     7    1
    28     7     8    1
    29    13    14   ar
    30    14    15   ar
    31    15    16   ar
    32    16    17   ar
    33    17    18    1
    34    16    19    1
    35    19    20    1
    36    20    21    1
    37    21    22    2
    38    21    23   am
    39    17    12   ar
    40     6     1    1
    41    23    15    1
    42     8     1    1
    43    39    29   ar
    44    39    34   ar
    45     9    10    1
    46    23    24    1
@<TRIPOS>MOLECULE
*****
 41 46 0 0 0
SMALL
GASTEIGER

@<TRIPOS>ATOM
      1 C         144.4026  140.5393  162.1124 C.3     1  UNL1        0.0700
      2 C         143.9485  141.5476  161.0990 C.3     1  UNL1        0.0193
      3 C         143.7195  142.9722  161.5089 C.3     1  UNL1        0.0286
      4 C         143.9448  143.3885  162.9323 C.3     1  UNL1        0.0932
      5 C         144.3990  142.3801  163.9457 C.3     1  UNL1        0.0286
      6 C         144.6279  140.9556  163.5358 C.3     1  UNL1        0.0193
      7 O         144.0835  142.5965  162.7551 O.3     1  UNL1       -0.3572
      8 C         144.2904  141.3083  162.3843 C.3     1  UNL1        0.1562
      9 N         144.6315  139.1147  161.7025 N.3     1  UNL1       -0.2926
     10 H         144.6643  139.1033  160.6831 H       1  UNL1        0.1236
     11 C         143.6596  138.0497  162.1164 C.3     1  UNL1        0.1148
     12 C         141.3192  138.0306  163.2442 C.ar    1  UNL1       -0.0082
     13 C         142.1845  138.3146  162.0524 C.ar    1  UNL1        0.0722
     14 N         141.5749  138.8636  160.7966 N.ar    1  UNL1       -0.2308
     15 C         140.0998  139.1285  160.7326 C.ar    1  UNL1        0.1679
     16 C         139.2344  138.8444  161.9245 C.ar    1  UNL1        0.1664
     17 C         139.8441  138.2954  163.1803 C.ar    1  UNL1        0.0122
     18 C         138.9788  138.0114  164.3721 C.3     1  UNL1        0.0340
     19 O         137.7594  139.1093  161.8605 O.3     1  UNL1       -0.4631
     20 C         137.1498  139.6582  160.6048 C.3     1  UNL1        0.2898
     21 C         138.0152  139.9423  159.4129 C.2     1  UNL1        0.2718
     22 O         137.4055  140.4913  158.1571 O.2     1  UNL1       -0.2707
     23 N         139.4902  139.6774  159.4769 N.am    1  UNL1       -0.2639
     24 H         140.0582  139.8639  158.6947 H       1  UNL1        0.1565
     25 C         142.4907  138.4149  165.5311 C.3     1  UNL1        0.0051
     26 C         141.9289  137.4816  164.5000 C.3     1  UNL1        0.0274
     27 C         143.7160  144.8131  163.3423 C.3     1  UNL1        0.0320
     28 C         142.3810  145.2329  163.8822 C.3     1  UNL1        0.0327
     29 C         141.1506  144.4492  163.5330 C.ar    1  UNL1        0.0261
     30 C         140.4031  144.7511  162.2680 C.ar    1  UNL1        0.1566
     31 F         140.8860  145.8366  161.3523 F       1  UNL1       -0.2028
     32 C         139.1727  143.9675  161.9187 C.ar    1  UNL1        0.1281
     33 N         138.6897  142.8819  162.8344 N.ar    1  UNL1       -0.2400
     34 C         139.4372  142.5800  164.0993 C.ar    1  UNL1        0.0990
     35 C         138.9543  141.4945  165.0150 C.ar    1  UNL1        0.0254
     36 C         139.7018  141.1926  166.2800 C.ar    1  UNL1        0.0593
     37 C         140.9322  141.9763  166.6293 C.ar    1  UNL1        0.2250
     38 N         141.4152  143.0618  165.7136 N.ar    1  UNL1       -0.2104
     39 C         140.6677  143.3637  164.4486 C.ar    1  UNL1        0.1002
     40 O         141.6797  141.6744  167.8942 O.3     1  UNL1       -0.4561
     41 C         143.0536  142.2378  168.1062 C.3     1  UNL1        0.2542
@<TRIPOS>BOND
     1    25    26    1
     2    26    12    1
     3    12    13   ar
     4    13    11    1
     5    11     9    1
     6     9     1    1
     7     1     2    1
     8     2     3    1
     9     3     4    1
    10     4    27    1
    11    27    28    1
    12    28    29    1
    13    29    30   ar
    14    30    31    1
    15    30    32   ar
    16    32    33   ar
    17    33    34   ar
    18    34    35   ar
    19    35    36   ar
    20    36    37   ar
    21    37    40    1
    22    40    41    1
    23    37    38   ar
    24    38    39   ar
    25     4     5    1
    26     5     6    1
    27     4     7    1
    28     7     8    1
    29    13    14   ar
    30    14    15   ar
    31    15    16   ar
    32    16    17   ar
    33    17    18    1
    34    16    19    1
    35    19    20    1
    36    20    21    1
    37    21    22    2
    38    21    23   am
    39    17    12   ar
    40     6     1    1
    41    23    15    1
    42     8     1    1
    43    39    29   ar
    44    39    34   ar
    45     9    10    1
    46    23    24    1
@<TRIPOS>MOLECULE
*****
 41 46 0 0 0
SMALL
GASTEIGER

@<TRIPOS>ATOM
      1 C         137.9062  142.7775  162.1728 C.3     1  UNL1        0.0700
      2 C         137.4087  141.9482  163.3193 C.3     1  UNL1        0.0193
      3 C         137.4772  140.4514  163.2477 C.3     1  UNL1        0.0286
      4 C         138.0432  139.7841  162.0294 C.3     1  UNL1        0.0932
      5 C         138.5407  140.6135  160.8827 C.3     1  UNL1        0.0286
      6 C         138.4722  142.1102  160.9545 C.3     1  UNL1        0.0193
      7 O         138.0263  140.6073  162.0227 O.3     1  UNL1       -0.3572
      8 C         137.9643  141.9606  162.0876 C.3     1  UNL1        0.1562
      9 N         137.8376  144.2742  162.2445 N.3     1  UNL1       -0.2926
     10 H         137.5936  144.6029  161.3102 H       1  UNL1        0.1236
     11 C         139.0388  145.0600  162.6800 C.3     1  UNL1        0.1148
     12 C         141.4797  144.2319  163.0064 C.ar    1  UNL1       -0.0082
     13 C         140.0879  144.4138  163.5355 C.ar    1  UNL1        0.0722
     14 N         139.7453  143.9496  164.9201 N.ar    1  UNL1       -0.2308
     15 C         140.7944  143.3034  165.7756 C.ar    1  UNL1        0.1679
     16 C         142.1861  143.1215  165.2465 C.ar    1  UNL1        0.1664
     17 C         142.5288  143.5857  163.8619 C.ar    1  UNL1        0.0122
     18 C         143.9205  143.4038  163.3328 C.3     1  UNL1        0.0340
     19 O         143.2352  142.4753  166.1020 O.3     1  UNL1       -0.4631
     20 C         142.8926  142.0111  167.4865 C.3     1  UNL1        0.2898
     21 C         141.5008  142.1930  168.0156 C.2     1  UNL1        0.2718
     22 O         141.1582  141.7288  169.4003 O.2     1  UNL1       -0.2707
     23 N         140.4517  142.8392  167.1602 N.am    1  UNL1       -0.2639
     24 H         139.5383  142.9586  167.5074 H       1  UNL1        0.1565
     25 C         141.7534  143.7370  160.4706 C.3     1  UNL1        0.0051
     26 C         141.8223  144.6961  161.6218 C.3     1  UNL1        0.0274
     27 C         138.1117  138.2874  161.9577 C.3     1  UNL1        0.0320
     28 C         138.8930  137.5224  162.9844 C.3     1  UNL1        0.0327
     29 C         140.1121  138.1344  163.6084 C.ar    1  UNL1        0.0261
     30 C         140.0494  138.6706  165.0079 C.ar    1  UNL1        0.1566
     31 F         138.7675  138.5949  165.7833 F       1  UNL1       -0.2028
     32 C         141.2684  139.2826  165.6319 C.ar    1  UNL1        0.1281
     33 N         142.5502  139.3583  164.8565 N.ar    1  UNL1       -0.2400
     34 C         142.6130  138.8221  163.4570 C.ar    1  UNL1        0.0990
     35 C         143.8947  138.8978  162.6816 C.ar    1  UNL1        0.0254
     36 C         143.9575  138.3615  161.2821 C.ar    1  UNL1        0.0593
     37 C         142.7385  137.7495  160.6581 C.ar    1  UNL1        0.2250
     38 N         141.4566  137.6738  161.4335 N.ar    1  UNL1       -0.2104
     39 C         141.3939  138.2101  162.8330 C.ar    1  UNL1        0.1002
     40 O         142.8012  137.2132  159.2586 O.3     1  UNL1       -0.4561
     41 C         142.7054  138.1503  158.0914 C.3     1  UNL1        0.2542
@<TRIPOS>BOND
     1    25    26    1
     2    26    12    1
     3    12    13   ar
     4    13    11    1
     5    11     9    1
     6     9     1    1
     7     1     2    1
     8     2     3    1
     9     3     4    1
    10     4    27    1
    11    27    28    1
    12    28    29    1
    13    29    30   ar
    14    30    31    1
    15    30    32   ar
    16    32    33   ar
    17    33    34   ar
    18    34    35   ar
    19    35    36   ar
    20    36    37   ar
    21    37    40    1
    22    40    41    1
    23    37    38   ar
    24    38    39   ar
    25     4     5    1
    26     5     6    1
    27     4     7    1
    28     7     8    1
    29    13    14   ar
    30    14    15   ar
    31    15    16   ar
    32    16    17   ar
    33    17    18    1
    34    16    19    1
    35    19    20    1
    36    20    21    1
    37    21    22    2
    38    21    23   am
    39    17    12   ar
    40     6     1    1
    41    23    15    1
    42     8     1    1
    43    39    29   ar
    44    39    34   ar
    45     9    10    1
    46    23    24    1
@<TRIPOS>MOLECULE
*****
 41 46 0 0 0
SMALL
GASTEIGER

@<TRIPOS>ATOM
      1 C         140.5710  137.6747  164.3712 C.3     1  UNL1        0.0700
      2 C         140.4536  137.5811  162.8788 C.3     1  UNL1        0.0193
      3 C         141.6217  137.9435  162.0103 C.3     1  UNL1        0.0286
      4 C         142.9072  138.3997  162.6344 C.3     1  UNL1        0.0932
      5 C         143.0246  138.4933  164.1269 C.3     1  UNL1        0.0286
      6 C         141.8565  138.1308  164.9953 C.3     1  UNL1        0.0193
      7 O         142.2945  138.2117  163.1513 O.3     1  UNL1       -0.3572
      8 C         141.2382  137.8840  163.9365 C.3     1  UNL1        0.1562
      9 N         139.4029  137.3122  165.2396 N.3     1  UNL1       -0.2926
     10 H         138.8535  136.6258  164.7226 H       1  UNL1        0.1236
     11 C         138.4488  138.3760  165.6957 C.3     1  UNL1        0.1148
     12 C         139.2640  140.8399  165.5744 C.ar    1  UNL1       -0.0082
     13 C         138.9682  139.6075  166.3767 C.ar    1  UNL1        0.0722
     14 N         139.1918  139.6066  167.8599 N.ar    1  UNL1       -0.2308
     15 C         139.7112  140.8381  168.5409 C.ar    1  UNL1        0.1679
     16 C         140.0070  142.0705  167.7386 C.ar    1  UNL1        0.1664
     17 C         139.7834  142.0714  166.2553 C.ar    1  UNL1        0.0122
     18 C         140.0792  143.3038  165.4530 C.3     1  UNL1        0.0340
     19 O         140.5263  143.3019  168.4195 O.3     1  UNL1       -0.4631
     20 C         140.7499  143.3010  169.9028 C.3     1  UNL1        0.2898
     21 C         140.4541  142.0686  170.7050 C.2     1  UNL1        0.2718
     22 O         140.6777  142.0677  172.1883 O.2     1  UNL1       -0.2707
     23 N         139.9347  140.8371  170.0241 N.am    1  UNL1       -0.2639
     24 H         139.7406  140.0282  170.5507 H       1  UNL1        0.1565
     25 C         137.7179  141.2750  163.5323 C.3     1  UNL1        0.0051
     26 C         139.0404  140.8408  164.0911 C.3     1  UNL1        0.0274
     27 C         144.0753  138.7621  161.7660 C.3     1  UNL1        0.0320
     28 C         144.0751  140.0585  161.0114 C.3     1  UNL1        0.0327
     29 C         143.6512  141.3244  161.6954 C.ar    1  UNL1        0.0261
     30 C         144.5795  142.0037  162.6581 C.ar    1  UNL1        0.1566
     31 F         145.9317  141.4171  162.9368 F       1  UNL1       -0.2028
     32 C         144.1557  143.2696  163.3421 C.ar    1  UNL1        0.1281
     33 N         142.8035  143.8562  163.0634 N.ar    1  UNL1       -0.2400
     34 C         141.8752  143.1769  162.1007 C.ar    1  UNL1        0.0990
     35 C         140.5231  143.7634  161.8221 C.ar    1  UNL1        0.0254
     36 C         139.5948  143.0840  160.8594 C.ar    1  UNL1        0.0593
     37 C         140.0186  141.8182  160.1754 C.ar    1  UNL1        0.2250
     38 N         141.3708  141.2316  160.4540 N.ar    1  UNL1       -0.2104
     39 C         142.2991  141.9109  161.4167 C.ar    1  UNL1        0.1002
     40 O         139.0903  141.1388  159.2127 O.3     1  UNL1       -0.4561
     41 C         138.2475  141.9567  158.2796 C.3     1  UNL1        0.2542
@<TRIPOS>BOND
     1    25    26    1
     2    26    12    1
     3    12    13   ar
     4    13    11    1
     5    11     9    1
     6     9     1    1
     7     1     2    1
     8     2     3    1
     9     3     4    1
    10     4    27    1
    11    27    28    1
    12    28    29    1
    13    29    30   ar
    14    30    31    1
    15    30    32   ar
    16    32    33   ar
    17    33    34   ar
    18    34    35   ar
    19    35    36   ar
    20    36    37   ar
    21    37    40    1
    22    40    41    1
    23    37    38   ar
    24    38    39   ar
    25     4     5    1
    26     5     6    1
    27     4     7    1
    28     7     8    1
    29    13    14   ar
    30    14    15   ar
    31    15    16   ar
    32    16    17   ar
    33    17    18    1
    34    16    19    1
    35    19    20    1
    36    20    21    1
    37    21    22    2
    38    21    23   am
    39    17    12   ar
    40     6     1    1
    41    23    15    1
    42     8     1    1
    43    39    29   ar
    44    39    34   ar
    45     9    10    1
    46    23    24    1
@<TRIPOS>MOLECULE
*****
 41 46 0 0 0
SMALL
GASTEIGER

@<TRIPOS>ATOM
      1 C         142.2705  138.1534  162.8449 C.3     1  UNL1        0.0700
      2 C         142.9969  138.9250  161.7834 C.3     1  UNL1        0.0193
      3 C         144.0892  139.8797  162.1650 C.3     1  UNL1        0.0286
      4 C         144.4550  140.0627  163.6082 C.3     1  UNL1        0.0932
      5 C         143.7284  139.2911  164.6698 C.3     1  UNL1        0.0286
      6 C         142.6362  138.3365  164.2881 C.3     1  UNL1        0.0193
      7 O         143.8495  139.5282  163.4478 O.3     1  UNL1       -0.3572
      8 C         142.8619  138.6650  163.1027 C.3     1  UNL1        0.1562
      9 N         141.1782  137.1988  162.4633 N.3     1  UNL1       -0.2926
     10 H         141.3773  136.8886  161.5122 H       1  UNL1        0.1236
     11 C         139.7478  137.6499  162.4810 C.3     1  UNL1        0.1148
     12 C         139.1324  140.1729  162.4033 C.ar    1  UNL1       -0.0082
     13 C         139.3341  138.8628  161.7012 C.ar    1  UNL1        0.0722
     14 N         139.1222  138.7654  160.2195 N.ar    1  UNL1       -0.2308
     15 C         138.7085  139.9783  159.4397 C.ar    1  UNL1        0.1679
     16 C         138.5068  141.2884  160.1418 C.ar    1  UNL1        0.1664
     17 C         138.7188  141.3857  161.6236 C.ar    1  UNL1        0.0122
     18 C         138.5171  142.6959  162.3256 C.3     1  UNL1        0.0340
     19 O         138.0932  142.5012  159.3621 O.3     1  UNL1       -0.4631
     20 C         137.8812  142.4039  157.8804 C.3     1  UNL1        0.2898
     21 C         138.0829  141.0937  157.1783 C.2     1  UNL1        0.2718
     22 O         137.8709  140.9964  155.6965 O.2     1  UNL1       -0.2707
     23 N         138.4966  139.8809  157.9580 N.am    1  UNL1       -0.2639
     24 H         138.6289  139.0210  157.4973 H       1  UNL1        0.1565
     25 C         138.1857  140.0958  164.8215 C.3     1  UNL1        0.0051
     26 C         139.3444  140.2702  163.8851 C.3     1  UNL1        0.0274
     27 C         145.5472  141.0173  163.9899 C.3     1  UNL1        0.0320
     28 C         145.2032  142.3849  164.5011 C.3     1  UNL1        0.0327
     29 C         143.9226  143.0428  164.0801 C.ar    1  UNL1        0.0261
     30 C         143.8414  143.7499  162.7597 C.ar    1  UNL1        0.1566
     31 F         145.0409  143.7991  161.8603 F       1  UNL1       -0.2028
     32 C         142.5608  144.4078  162.3387 C.ar    1  UNL1        0.1281
     33 N         141.3613  144.3586  163.2381 N.ar    1  UNL1       -0.2400
     34 C         141.4425  143.6514  164.5585 C.ar    1  UNL1        0.0990
     35 C         140.2431  143.6022  165.4579 C.ar    1  UNL1        0.0254
     36 C         140.3243  142.8951  166.7783 C.ar    1  UNL1        0.0593
     37 C         141.6048  142.2372  167.1993 C.ar    1  UNL1        0.2250
     38 N         142.8043  142.2864  166.2999 N.ar    1  UNL1       -0.2104
     39 C         142.7232  142.9936  164.9795 C.ar    1  UNL1        0.1002
     40 O         141.6860  141.5301  168.5196 O.3     1  UNL1       -0.4561
     41 C         140.4353  141.2514  169.2993 C.3     1  UNL1        0.2542
@<TRIPOS>BOND
     1    25    26    1
     2    26    12    1
     3    12    13   ar
     4    13    11    1
     5    11     9    1
     6     9     1    1
     7     1     2    1
     8     2     3    1
     9     3     4    1
    10     4    27    1
    11    27    28    1
    12    28    29    1
    13    29    30   ar
    14    30    31    1
    15    30    32   ar
    16    32    33   ar
    17    33    34   ar
    18    34    35   ar
    19    35    36   ar
    20    36    37   ar
    21    37    40    1
    22    40    41    1
    23    37    38   ar
    24    38    39   ar
    25     4     5    1
    26     5     6    1
    27     4     7    1
    28     7     8    1
    29    13    14   ar
    30    14    15   ar
    31    15    16   ar
    32    16    17   ar
    33    17    18    1
    34    16    19    1
    35    19    20    1
    36    20    21    1
    37    21    22    2
    38    21    23   am
    39    17    12   ar
    40     6     1    1
    41    23    15    1
    42     8     1    1
    43    39    29   ar
    44    39    34   ar
    45     9    10    1
    46    23    24    1
