@<TRIPOS>MOLECULE
*****
 35 40 0 0 0
SMALL
GASTEIGER

@<TRIPOS>ATOM
      1 C         144.0911  141.9319  158.7774 C.ar    1  UNL1        0.2227
      2 N         145.0296  142.5044  157.7570 N.ar    1  UNL1       -0.1986
      3 C         145.3984  141.7029  156.5440 C.ar    1  UNL1        0.1376
      4 C         144.8287  140.3287  156.3514 C.ar    1  UNL1        0.0676
      5 C         145.1974  139.5271  155.1383 C.ar    1  UNL1        0.0074
      6 C         144.6277  138.1530  154.9458 C.ar    1  UNL1        0.0193
      7 C         143.6892  137.5804  155.9663 C.ar    1  UNL1        0.0827
      8 N         143.3204  138.3820  157.1793 N.ar    1  UNL1       -0.2264
      9 C         143.8901  139.7561  157.3718 C.ar    1  UNL1        0.1678
     10 N         143.5214  140.5577  158.5849 N.ar    1  UNL1       -0.1944
     11 C         143.1194  136.2062  155.7737 C.2     1  UNL1        0.0140
     12 C         141.9358  136.0043  154.8747 C.2     1  UNL1       -0.0183
     13 C         141.3660  134.6302  154.6820 C.3     1  UNL1        0.0720
     14 C         141.9799  133.4579  155.3884 C.2     1  UNL1        0.0693
     15 N         141.4102  132.0838  155.1958 N.2     1  UNL1       -0.2301
     16 C         142.0241  130.9116  155.9022 C.2     1  UNL1        0.1880
     17 N         143.2077  131.1135  156.8012 N.am    1  UNL1       -0.1537
     18 C         143.7775  132.4876  156.9938 C.2     1  UNL1        0.2715
     19 O         144.9612  132.6895  157.8928 O.2     1  UNL1       -0.2679
     20 C         143.1636  133.6598  156.2874 C.2     1  UNL1        0.0694
     21 C         143.7333  135.0340  156.4800 C.2     1  UNL1        0.0070
     22 C         141.5191  143.4753  158.8305 C.3     1  UNL1        0.0242
     23 C         142.4364  143.5052  160.0170 C.3     1  UNL1        0.1052
     24 C         142.0677  144.3068  161.2301 C.3     1  UNL1        0.1619
     25 O         142.9849  144.3367  162.4165 O.3     1  UNL1       -0.3502
     26 C         144.2709  143.5650  162.3900 C.3     1  UNL1        0.1637
     27 C         144.6396  142.7634  161.1770 C.3     1  UNL1        0.1256
     28 N         143.7223  142.7335  159.9905 N.pl3   1  UNL1       -0.2747
     29 N         146.3369  142.2754  155.5235 N.pl3   1  UNL1       -0.2897
     30 C         147.8008  141.9548  155.5875 C.3     1  UNL1        0.1242
     31 C         148.7393  142.5273  154.5670 C.3     1  UNL1        0.1636
     32 O         148.2140  143.4206  153.4826 O.3     1  UNL1       -0.3502
     33 C         146.7500  143.7413  153.4185 C.3     1  UNL1        0.1618
     34 C         145.8115  143.1687  154.4390 C.3     1  UNL1        0.1038
     35 C         144.3476  143.4894  154.3750 C.3     1  UNL1        0.0241
@<TRIPOS>BOND
     1    23    22    1
     2    23    24    1
     3    24    25    1
     4    25    26    1
     5    26    27    1
     6    27    28    1
     7    28     1    1
     8     1     2   ar
     9     2     3   ar
    10     3    29    1
    11    29    30    1
    12    30    31    1
    13    31    32    1
    14    32    33    1
    15    33    34    1
    16    34    35    1
    17     3     4   ar
    18     4     5   ar
    19     5     6   ar
    20     6     7   ar
    21     7    11    1
    22    11    12    2
    23    12    13    1
    24    13    14    1
    25    14    15    2
    26    15    16    1
    27    16    17    2
    28    17    18    1
    29    18    19    2
    30    18    20    1
    31    20    21    2
    32     7     8   ar
    33     8     9   ar
    34     9    10   ar
    35    28    23    1
    36    10     1   ar
    37    34    29    1
    38     9     4   ar
    39    21    11    1
    40    20    14    1
@<TRIPOS>MOLECULE
*****
 35 40 0 0 0
SMALL
GASTEIGER

@<TRIPOS>ATOM
      1 C         146.5314  141.5638  155.6554 C.ar    1  UNL1        0.2227
      2 N         145.8553  142.3500  156.7393 N.ar    1  UNL1       -0.1986
      3 C         144.6952  141.7577  157.4832 C.ar    1  UNL1        0.1376
      4 C         144.2112  140.3792  157.1432 C.ar    1  UNL1        0.0676
      5 C         143.0511  139.7870  157.8871 C.ar    1  UNL1        0.0074
      6 C         142.5671  138.4086  157.5471 C.ar    1  UNL1        0.0193
      7 C         143.2432  137.6224  156.4632 C.ar    1  UNL1        0.0827
      8 N         144.4033  138.2147  155.7193 N.ar    1  UNL1       -0.2264
      9 C         144.8873  139.5931  156.0593 C.ar    1  UNL1        0.1678
     10 N         146.0474  140.1854  155.3154 N.ar    1  UNL1       -0.1944
     11 C         142.7591  136.2439  156.1232 C.2     1  UNL1        0.0140
     12 C         141.6226  136.0643  155.1609 C.2     1  UNL1       -0.0183
     13 C         141.1385  134.6859  154.8209 C.3     1  UNL1        0.0720
     14 C         141.7910  133.4870  155.4431 C.2     1  UNL1        0.0693
     15 N         141.3069  132.1086  155.1031 N.2     1  UNL1       -0.2301
     16 C         141.9594  130.9099  155.7254 C.2     1  UNL1        0.1880
     17 N         143.0960  131.0896  156.6877 N.am    1  UNL1       -0.1537
     18 C         143.5800  132.4680  157.0277 C.2     1  UNL1        0.2715
     19 O         144.7166  132.6476  157.9900 O.2     1  UNL1       -0.2679
     20 C         142.9275  133.6667  156.4054 C.2     1  UNL1        0.0694
     21 C         143.4116  135.0452  156.7454 C.2     1  UNL1        0.0070
     22 C         146.0674  143.7276  153.6299 C.3     1  UNL1        0.0242
     23 C         147.4595  143.2380  153.8988 C.3     1  UNL1        0.1052
     24 C         148.6196  143.8303  153.1549 C.3     1  UNL1        0.1619
     25 O         150.0117  143.3407  153.4238 O.3     1  UNL1       -0.3502
     26 C         150.2437  142.2588  154.4366 C.3     1  UNL1        0.1637
     27 C         149.0836  141.6666  155.1804 C.3     1  UNL1        0.1256
     28 N         147.6915  142.1562  154.9115 N.pl3   1  UNL1       -0.2747
     29 N         144.0192  142.5439  158.5671 N.pl3   1  UNL1       -0.2897
     30 C         144.4773  142.4085  159.9890 C.3     1  UNL1        0.1242
     31 C         143.8013  143.1947  161.0729 C.3     1  UNL1        0.1636
     32 O         142.6670  144.1162  160.7350 O.3     1  UNL1       -0.3502
     33 C         142.2088  144.2516  159.3130 C.3     1  UNL1        0.1618
     34 C         142.8849  143.4655  158.2291 C.3     1  UNL1        0.1038
     35 C         142.4267  143.6009  156.8073 C.3     1  UNL1        0.0241
@<TRIPOS>BOND
     1    23    22    1
     2    23    24    1
     3    24    25    1
     4    25    26    1
     5    26    27    1
     6    27    28    1
     7    28     1    1
     8     1     2   ar
     9     2     3   ar
    10     3    29    1
    11    29    30    1
    12    30    31    1
    13    31    32    1
    14    32    33    1
    15    33    34    1
    16    34    35    1
    17     3     4   ar
    18     4     5   ar
    19     5     6   ar
    20     6     7   ar
    21     7    11    1
    22    11    12    2
    23    12    13    1
    24    13    14    1
    25    14    15    2
    26    15    16    1
    27    16    17    2
    28    17    18    1
    29    18    19    2
    30    18    20    1
    31    20    21    2
    32     7     8   ar
    33     8     9   ar
    34     9    10   ar
    35    28    23    1
    36    10     1   ar
    37    34    29    1
    38     9     4   ar
    39    21    11    1
    40    20    14    1
@<TRIPOS>MOLECULE
*****
 35 40 0 0 0
SMALL
GASTEIGER

@<TRIPOS>ATOM
      1 C         143.1470  139.8723  160.5700 C.ar    1  UNL1        0.2227
      2 N         142.1394  140.8148  159.9814 N.ar    1  UNL1       -0.1986
      3 C         141.4213  140.4504  158.7159 C.ar    1  UNL1        0.1376
      4 C         141.7107  139.1435  158.0390 C.ar    1  UNL1        0.0676
      5 C         140.9926  138.7791  156.7735 C.ar    1  UNL1        0.0074
      6 C         141.2821  137.4721  156.0967 C.ar    1  UNL1        0.0193
      7 C         142.2896  136.5296  156.6853 C.ar    1  UNL1        0.0827
      8 N         143.0077  136.8940  157.9508 N.ar    1  UNL1       -0.2264
      9 C         142.7183  138.2009  158.6277 C.ar    1  UNL1        0.1678
     10 N         143.4364  138.5654  159.8932 N.ar    1  UNL1       -0.1944
     11 C         142.5790  135.2226  156.0085 C.2     1  UNL1        0.0140
     12 C         141.9106  134.8873  154.7081 C.2     1  UNL1       -0.0183
     13 C         142.1999  133.5804  154.0312 C.3     1  UNL1        0.0720
     14 C         143.1577  132.6087  154.6547 C.2     1  UNL1        0.0693
     15 N         143.4471  131.3018  153.9778 N.2     1  UNL1       -0.2301
     16 C         144.4048  130.3302  154.6012 C.2     1  UNL1        0.1880
     17 N         145.0732  130.6656  155.9015 N.am    1  UNL1       -0.1537
     18 C         144.7839  131.9725  156.5784 C.2     1  UNL1        0.2715
     19 O         145.4523  132.3078  157.8787 O.2     1  UNL1       -0.2679
     20 C         143.8261  132.9440  155.9550 C.2     1  UNL1        0.0694
     21 C         143.5367  134.2510  156.6319 C.2     1  UNL1        0.0070
     22 C         142.6433  138.3128  163.0829 C.3     1  UNL1        0.0242
     23 C         143.6132  139.4570  163.0920 C.3     1  UNL1        0.1052
     24 C         144.3313  139.8215  164.3575 C.3     1  UNL1        0.1619
     25 O         145.3013  140.9657  164.3665 O.3     1  UNL1       -0.3502
     26 C         145.5531  141.7454  163.1101 C.3     1  UNL1        0.1637
     27 C         144.8350  141.3809  161.8447 C.3     1  UNL1        0.1256
     28 N         143.8651  140.2367  161.8356 N.pl3   1  UNL1       -0.2747
     29 N         140.4138  141.3930  158.1272 N.pl3   1  UNL1       -0.2897
     30 C         140.8553  142.4618  157.1719 C.3     1  UNL1        0.1242
     31 C         139.8477  143.4043  156.5832 C.3     1  UNL1        0.1636
     32 O         138.3988  143.2780  156.9499 O.3     1  UNL1       -0.3502
     33 C         137.9573  142.2092  157.9053 C.3     1  UNL1        0.1618
     34 C         138.9648  141.2667  158.4939 C.3     1  UNL1        0.1038
     35 C         138.5233  140.1978  159.4493 C.3     1  UNL1        0.0241
@<TRIPOS>BOND
     1    23    22    1
     2    23    24    1
     3    24    25    1
     4    25    26    1
     5    26    27    1
     6    27    28    1
     7    28     1    1
     8     1     2   ar
     9     2     3   ar
    10     3    29    1
    11    29    30    1
    12    30    31    1
    13    31    32    1
    14    32    33    1
    15    33    34    1
    16    34    35    1
    17     3     4   ar
    18     4     5   ar
    19     5     6   ar
    20     6     7   ar
    21     7    11    1
    22    11    12    2
    23    12    13    1
    24    13    14    1
    25    14    15    2
    26    15    16    1
    27    16    17    2
    28    17    18    1
    29    18    19    2
    30    18    20    1
    31    20    21    2
    32     7     8   ar
    33     8     9   ar
    34     9    10   ar
    35    28    23    1
    36    10     1   ar
    37    34    29    1
    38     9     4   ar
    39    21    11    1
    40    20    14    1
@<TRIPOS>MOLECULE
*****
 35 40 0 0 0
SMALL
GASTEIGER

@<TRIPOS>ATOM
      1 C         144.7687  141.9791  155.9409 C.ar    1  UNL1        0.2227
      2 N         144.3831  142.4507  157.3117 N.ar    1  UNL1       -0.1986
      3 C         143.7399  141.5009  158.2782 C.ar    1  UNL1        0.1376
      4 C         143.4823  140.0795  157.8740 C.ar    1  UNL1        0.0676
      5 C         142.8391  139.1297  158.8405 C.ar    1  UNL1        0.0074
      6 C         142.5816  137.7084  158.4363 C.ar    1  UNL1        0.0193
      7 C         142.9672  137.2368  157.0656 C.ar    1  UNL1        0.0827
      8 N         143.6104  138.1866  156.0991 N.ar    1  UNL1       -0.2264
      9 C         143.8680  139.6079  156.5033 C.ar    1  UNL1        0.1678
     10 N         144.5112  140.5578  155.5367 N.ar    1  UNL1       -0.1944
     11 C         142.7096  135.8154  156.6614 C.2     1  UNL1        0.0140
     12 C         141.5828  135.4945  155.7249 C.2     1  UNL1       -0.0183
     13 C         141.3251  134.0731  155.3207 C.3     1  UNL1        0.0720
     14 C         142.1944  132.9727  155.8530 C.2     1  UNL1        0.0693
     15 N         141.9368  131.5513  155.4489 N.2     1  UNL1       -0.2301
     16 C         142.8061  130.4509  155.9812 C.2     1  UNL1        0.1880
     17 N         143.9330  130.7719  156.9178 N.am    1  UNL1       -0.1537
     18 C         144.1906  132.1932  157.3220 C.2     1  UNL1        0.2715
     19 O         145.3175  132.5141  158.2585 O.2     1  UNL1       -0.2679
     20 C         143.3213  133.2936  156.7896 C.2     1  UNL1        0.0694
     21 C         143.5789  134.7150  157.1938 C.2     1  UNL1        0.0070
     22 C         147.7590  142.1638  155.7843 C.3     1  UNL1        0.0242
     23 C         146.9070  143.0213  154.8961 C.3     1  UNL1        0.1052
     24 C         147.5502  143.9711  153.9296 C.3     1  UNL1        0.1619
     25 O         146.6982  144.8286  153.0414 O.3     1  UNL1       -0.3502
     26 C         145.2031  144.7363  153.1197 C.3     1  UNL1        0.1637
     27 C         144.5600  143.7865  154.0862 C.3     1  UNL1        0.1256
     28 N         145.4119  142.9289  154.9744 N.pl3   1  UNL1       -0.2747
     29 N         143.3543  141.9725  159.6489 N.pl3   1  UNL1       -0.2897
     30 C         144.3359  141.8761  160.7790 C.3     1  UNL1        0.1242
     31 C         143.9503  142.3477  162.1497 C.3     1  UNL1        0.1636
     32 O         142.5830  142.9156  162.3904 O.3     1  UNL1       -0.3502
     33 C         141.6013  143.0121  161.2603 C.3     1  UNL1        0.1618
     34 C         141.9869  142.5405  159.8896 C.3     1  UNL1        0.1038
     35 C         141.0053  142.6369  158.7595 C.3     1  UNL1        0.0241
@<TRIPOS>BOND
     1    23    22    1
     2    23    24    1
     3    24    25    1
     4    25    26    1
     5    26    27    1
     6    27    28    1
     7    28     1    1
     8     1     2   ar
     9     2     3   ar
    10     3    29    1
    11    29    30    1
    12    30    31    1
    13    31    32    1
    14    32    33    1
    15    33    34    1
    16    34    35    1
    17     3     4   ar
    18     4     5   ar
    19     5     6   ar
    20     6     7   ar
    21     7    11    1
    22    11    12    2
    23    12    13    1
    24    13    14    1
    25    14    15    2
    26    15    16    1
    27    16    17    2
    28    17    18    1
    29    18    19    2
    30    18    20    1
    31    20    21    2
    32     7     8   ar
    33     8     9   ar
    34     9    10   ar
    35    28    23    1
    36    10     1   ar
    37    34    29    1
    38     9     4   ar
    39    21    11    1
    40    20    14    1
@<TRIPOS>MOLECULE
*****
 35 40 0 0 0
SMALL
GASTEIGER

@<TRIPOS>ATOM
      1 C         138.6231  139.8632  156.3271 C.ar    1  UNL1        0.2227
      2 N         139.9847  139.4650  155.8400 N.ar    1  UNL1       -0.1986
      3 C         141.0348  139.0320  156.8198 C.ar    1  UNL1        0.1376
      4 C         140.7232  138.9973  158.2867 C.ar    1  UNL1        0.0676
      5 C         141.7732  138.5644  159.2665 C.ar    1  UNL1        0.0074
      6 C         141.4616  138.5297  160.7333 C.ar    1  UNL1        0.0193
      7 C         140.0999  138.9280  161.2204 C.ar    1  UNL1        0.0827
      8 N         139.0499  139.3609  160.2406 N.ar    1  UNL1       -0.2264
      9 C         139.3615  139.3956  158.7738 C.ar    1  UNL1        0.1678
     10 N         138.3114  139.8285  157.7939 N.ar    1  UNL1       -0.1944
     11 C         139.7883  138.8933  162.6873 C.2     1  UNL1        0.0140
     12 C         139.0613  137.7187  163.2720 C.2     1  UNL1       -0.0183
     13 C         138.7497  137.6839  164.7388 C.3     1  UNL1        0.0720
     14 C         139.1650  138.8238  165.6210 C.2     1  UNL1        0.0693
     15 N         138.8534  138.7891  167.0879 N.2     1  UNL1       -0.2301
     16 C         139.2687  139.9289  167.9700 C.2     1  UNL1        0.1880
     17 N         139.9957  141.1035  167.3853 N.am    1  UNL1       -0.1537
     18 C         140.3073  141.1383  165.9184 C.2     1  UNL1        0.2715
     19 O         141.0342  142.3129  165.3337 O.2     1  UNL1       -0.2679
     20 C         139.8920  139.9984  165.0363 C.2     1  UNL1        0.0694
     21 C         140.2036  140.0331  163.5694 C.2     1  UNL1        0.0070
     22 C         137.3553  137.8499  154.4996 C.3     1  UNL1        0.0242
     23 C         136.9392  139.2895  154.4336 C.3     1  UNL1        0.1052
     24 C         135.8892  139.7225  153.4538 C.3     1  UNL1        0.1619
     25 O         135.4730  141.1621  153.3877 O.3     1  UNL1       -0.3502
     26 C         136.1069  142.1687  154.3014 C.3     1  UNL1        0.1637
     27 C         137.1568  141.7357  155.2812 C.3     1  UNL1        0.1256
     28 N         137.5730  140.2961  155.3473 N.pl3   1  UNL1       -0.2747
     29 N         142.3965  138.6338  156.3327 N.pl3   1  UNL1       -0.2897
     30 C         143.4517  139.6782  156.1193 C.3     1  UNL1        0.1242
     31 C         144.8134  139.2799  155.6322 C.3     1  UNL1        0.1636
     32 O         145.1198  137.8373  155.3586 O.3     1  UNL1       -0.3502
     33 C         144.0645  136.7928  155.5720 C.3     1  UNL1        0.1618
     34 C         142.7028  137.1911  156.0591 C.3     1  UNL1        0.1038
     35 C         141.6475  136.1467  156.2725 C.3     1  UNL1        0.0241
@<TRIPOS>BOND
     1    23    22    1
     2    23    24    1
     3    24    25    1
     4    25    26    1
     5    26    27    1
     6    27    28    1
     7    28     1    1
     8     1     2   ar
     9     2     3   ar
    10     3    29    1
    11    29    30    1
    12    30    31    1
    13    31    32    1
    14    32    33    1
    15    33    34    1
    16    34    35    1
    17     3     4   ar
    18     4     5   ar
    19     5     6   ar
    20     6     7   ar
    21     7    11    1
    22    11    12    2
    23    12    13    1
    24    13    14    1
    25    14    15    2
    26    15    16    1
    27    16    17    2
    28    17    18    1
    29    18    19    2
    30    18    20    1
    31    20    21    2
    32     7     8   ar
    33     8     9   ar
    34     9    10   ar
    35    28    23    1
    36    10     1   ar
    37    34    29    1
    38     9     4   ar
    39    21    11    1
    40    20    14    1
@<TRIPOS>MOLECULE
*****
 35 40 0 0 0
SMALL
GASTEIGER

@<TRIPOS>ATOM
      1 C         140.8745  142.3621  158.6609 C.ar    1  UNL1        0.2227
      2 N         141.1776  141.0879  157.9298 N.ar    1  UNL1       -0.1986
      3 C         141.1170  139.7754  158.6533 C.ar    1  UNL1        0.1376
      4 C         140.7533  139.7371  160.1081 C.ar    1  UNL1        0.0676
      5 C         140.6928  138.4246  160.8317 C.ar    1  UNL1        0.0074
      6 C         140.3291  138.3862  162.2864 C.ar    1  UNL1        0.0193
      7 C         140.0261  139.6604  163.0176 C.ar    1  UNL1        0.0827
      8 N         140.0867  140.9729  162.2940 N.ar    1  UNL1       -0.2264
      9 C         140.4503  141.0113  160.8393 C.ar    1  UNL1        0.1678
     10 N         140.5109  142.3238  160.1156 N.ar    1  UNL1       -0.1944
     11 C         139.6625  139.6221  164.4724 C.2     1  UNL1        0.0140
     12 C         138.4760  138.8254  164.9281 C.2     1  UNL1       -0.0183
     13 C         138.1124  138.7870  166.3828 C.3     1  UNL1        0.0720
     14 C         138.9352  139.5453  167.3819 C.2     1  UNL1        0.0693
     15 N         138.5715  139.5069  168.8366 N.2     1  UNL1       -0.2301
     16 C         139.3943  140.2652  169.8356 C.2     1  UNL1        0.1880
     17 N         140.5807  141.0618  169.3799 N.am    1  UNL1       -0.1537
     18 C         140.9444  141.1002  167.9251 C.2     1  UNL1        0.2715
     19 O         142.1308  141.8969  167.4694 O.2     1  UNL1       -0.2679
     20 C         140.1216  140.3420  166.9262 C.2     1  UNL1        0.0694
     21 C         140.4852  140.3803  165.4714 C.2     1  UNL1        0.0070
     22 C         138.5823  143.2280  156.9300 C.3     1  UNL1        0.0242
     23 C         139.7890  144.1076  157.0719 C.3     1  UNL1        0.1052
     24 C         139.8497  145.4201  156.3483 C.3     1  UNL1        0.1619
     25 O         141.0564  146.2997  156.4901 O.3     1  UNL1       -0.3502
     26 C         142.2025  145.8668  157.3555 C.3     1  UNL1        0.1637
     27 C         142.1418  144.5543  158.0791 C.3     1  UNL1        0.1256
     28 N         140.9351  143.6747  157.9373 N.pl3   1  UNL1       -0.2747
     29 N         141.4200  138.5012  157.9222 N.pl3   1  UNL1       -0.2897
     30 C         142.6711  137.7357  158.2362 C.3     1  UNL1        0.1242
     31 C         142.9741  136.4615  157.5050 C.3     1  UNL1        0.1636
     32 O         142.0261  135.9528  156.4599 O.3     1  UNL1       -0.3502
     33 C         140.7749  136.7184  156.1458 C.3     1  UNL1        0.1618
     34 C         140.4719  137.9926  156.8769 C.3     1  UNL1        0.1038
     35 C         139.2208  138.7582  156.5629 C.3     1  UNL1        0.0241
@<TRIPOS>BOND
     1    23    22    1
     2    23    24    1
     3    24    25    1
     4    25    26    1
     5    26    27    1
     6    27    28    1
     7    28     1    1
     8     1     2   ar
     9     2     3   ar
    10     3    29    1
    11    29    30    1
    12    30    31    1
    13    31    32    1
    14    32    33    1
    15    33    34    1
    16    34    35    1
    17     3     4   ar
    18     4     5   ar
    19     5     6   ar
    20     6     7   ar
    21     7    11    1
    22    11    12    2
    23    12    13    1
    24    13    14    1
    25    14    15    2
    26    15    16    1
    27    16    17    2
    28    17    18    1
    29    18    19    2
    30    18    20    1
    31    20    21    2
    32     7     8   ar
    33     8     9   ar
    34     9    10   ar
    35    28    23    1
    36    10     1   ar
    37    34    29    1
    38     9     4   ar
    39    21    11    1
    40    20    14    1
@<TRIPOS>MOLECULE
*****
 35 40 0 0 0
SMALL
GASTEIGER

@<TRIPOS>ATOM
      1 C         139.2569  141.9065  157.6000 C.ar    1  UNL1        0.2227
      2 N         139.9709  140.7700  156.9302 N.ar    1  UNL1       -0.1986
      3 C         140.4562  139.6062  157.7426 C.ar    1  UNL1        0.1376
      4 C         140.2275  139.5788  159.2249 C.ar    1  UNL1        0.0676
      5 C         140.7127  138.4150  160.0373 C.ar    1  UNL1        0.0074
      6 C         140.4840  138.3877  161.5194 C.ar    1  UNL1        0.0193
      7 C         139.7700  139.5242  162.1892 C.ar    1  UNL1        0.0827
      8 N         139.2847  140.6880  161.3768 N.ar    1  UNL1       -0.2264
      9 C         139.5134  140.7153  159.8947 C.ar    1  UNL1        0.1678
     10 N         139.0281  141.8792  159.0822 N.ar    1  UNL1       -0.1944
     11 C         139.5413  139.4968  163.6715 C.2     1  UNL1        0.0140
     12 C         138.7373  138.3896  164.2860 C.2     1  UNL1       -0.0183
     13 C         138.5086  138.3621  165.7681 C.3     1  UNL1        0.0720
     14 C         139.0839  139.4420  166.6359 C.2     1  UNL1        0.0693
     15 N         138.8551  139.4146  168.1181 N.2     1  UNL1       -0.2301
     16 C         139.4304  140.4945  168.9858 C.2     1  UNL1        0.1880
     17 N         140.2344  141.6018  168.3713 N.am    1  UNL1       -0.1537
     18 C         140.4631  141.6292  166.8891 C.2     1  UNL1        0.2715
     19 O         141.2670  142.7365  166.2747 O.2     1  UNL1       -0.2679
     20 C         139.8878  140.5493  166.0215 C.2     1  UNL1        0.0694
     21 C         140.1165  140.5767  164.5392 C.2     1  UNL1        0.0070
     22 C         136.6172  141.7500  156.1831 C.3     1  UNL1        0.0242
     23 C         137.4517  142.9921  156.0791 C.3     1  UNL1        0.1052
     24 C         136.9665  144.1559  155.2667 C.3     1  UNL1        0.1619
     25 O         137.8011  145.3979  155.1627 O.3     1  UNL1       -0.3502
     26 C         139.1209  145.4762  155.8712 C.3     1  UNL1        0.1637
     27 C         139.6061  144.3124  156.6836 C.3     1  UNL1        0.1256
     28 N         138.7715  143.0703  156.7876 N.pl3   1  UNL1       -0.2747
     29 N         141.1702  138.4697  157.0728 N.pl3   1  UNL1       -0.2897
     30 C         140.3913  137.3013  156.5454 C.3     1  UNL1        0.1242
     31 C         141.1054  136.1649  155.8756 C.3     1  UNL1        0.1636
     32 O         142.5982  136.1968  155.7333 O.3     1  UNL1       -0.3502
     33 C         143.3771  137.3652  156.2607 C.3     1  UNL1        0.1618
     34 C         142.6631  138.5017  156.9305 C.3     1  UNL1        0.1038
     35 C         143.4420  139.6701  157.4579 C.3     1  UNL1        0.0241
@<TRIPOS>BOND
     1    23    22    1
     2    23    24    1
     3    24    25    1
     4    25    26    1
     5    26    27    1
     6    27    28    1
     7    28     1    1
     8     1     2   ar
     9     2     3   ar
    10     3    29    1
    11    29    30    1
    12    30    31    1
    13    31    32    1
    14    32    33    1
    15    33    34    1
    16    34    35    1
    17     3     4   ar
    18     4     5   ar
    19     5     6   ar
    20     6     7   ar
    21     7    11    1
    22    11    12    2
    23    12    13    1
    24    13    14    1
    25    14    15    2
    26    15    16    1
    27    16    17    2
    28    17    18    1
    29    18    19    2
    30    18    20    1
    31    20    21    2
    32     7     8   ar
    33     8     9   ar
    34     9    10   ar
    35    28    23    1
    36    10     1   ar
    37    34    29    1
    38     9     4   ar
    39    21    11    1
    40    20    14    1
@<TRIPOS>MOLECULE
*****
 35 40 0 0 0
SMALL
GASTEIGER

@<TRIPOS>ATOM
      1 C         141.2675  138.6978  158.2655 C.ar    1  UNL1        0.2227
      2 N         141.2945  140.1010  157.7360 N.ar    1  UNL1       -0.1986
      3 C         140.9766  141.2516  158.6443 C.ar    1  UNL1        0.1376
      4 C         140.6318  140.9991  160.0822 C.ar    1  UNL1        0.0676
      5 C         140.3139  142.1496  160.9905 C.ar    1  UNL1        0.0074
      6 C         139.9691  141.8970  162.4283 C.ar    1  UNL1        0.0193
      7 C         139.9422  140.4938  162.9578 C.ar    1  UNL1        0.0827
      8 N         140.2600  139.3433  162.0494 N.ar    1  UNL1       -0.2264
      9 C         140.6048  139.5959  160.6117 C.ar    1  UNL1        0.1678
     10 N         140.9227  138.4452  159.7033 N.ar    1  UNL1       -0.1944
     11 C         139.5973  140.2413  164.3956 C.2     1  UNL1        0.0140
     12 C         138.5354  139.2421  164.7479 C.2     1  UNL1       -0.0183
     13 C         138.1906  138.9895  166.1856 C.3     1  UNL1        0.0720
     14 C         138.9076  139.7361  167.2713 C.2     1  UNL1        0.0693
     15 N         138.5628  139.4835  168.7090 N.2     1  UNL1       -0.2301
     16 C         139.2798  140.2301  169.7946 C.2     1  UNL1        0.1880
     17 N         140.3417  141.2292  169.4423 N.am    1  UNL1       -0.1537
     18 C         140.6866  141.4818  168.0046 C.2     1  UNL1        0.2715
     19 O         141.7485  142.4810  167.6523 O.2     1  UNL1       -0.2679
     20 C         139.9695  140.7353  166.9190 C.2     1  UNL1        0.0694
     21 C         140.3144  140.9878  165.4812 C.2     1  UNL1        0.0070
     22 C         139.3044  137.8662  156.1549 C.3     1  UNL1        0.0242
     23 C         140.6038  137.1314  156.3018 C.3     1  UNL1        0.1052
     24 C         140.9217  135.9809  155.3935 C.3     1  UNL1        0.1619
     25 O         142.2211  135.2461  155.5404 O.3     1  UNL1       -0.3502
     26 C         143.2027  135.6619  156.5957 C.3     1  UNL1        0.1637
     27 C         142.8848  136.8124  157.5040 C.3     1  UNL1        0.1256
     28 N         141.5853  137.5472  157.3571 N.pl3   1  UNL1       -0.2747
     29 N         141.0036  142.6548  158.1149 N.pl3   1  UNL1       -0.2897
     30 C         139.7674  143.2525  157.5111 C.3     1  UNL1        0.1242
     31 C         139.7944  144.6557  156.9817 C.3     1  UNL1        0.1636
     32 O         141.0575  145.4612  157.0560 O.3     1  UNL1       -0.3502
     33 C         142.2938  144.8635  157.6597 C.3     1  UNL1        0.1618
     34 C         142.2668  143.4603  158.1892 C.3     1  UNL1        0.1038
     35 C         143.5030  142.8626  158.7930 C.3     1  UNL1        0.0241
@<TRIPOS>BOND
     1    23    22    1
     2    23    24    1
     3    24    25    1
     4    25    26    1
     5    26    27    1
     6    27    28    1
     7    28     1    1
     8     1     2   ar
     9     2     3   ar
    10     3    29    1
    11    29    30    1
    12    30    31    1
    13    31    32    1
    14    32    33    1
    15    33    34    1
    16    34    35    1
    17     3     4   ar
    18     4     5   ar
    19     5     6   ar
    20     6     7   ar
    21     7    11    1
    22    11    12    2
    23    12    13    1
    24    13    14    1
    25    14    15    2
    26    15    16    1
    27    16    17    2
    28    17    18    1
    29    18    19    2
    30    18    20    1
    31    20    21    2
    32     7     8   ar
    33     8     9   ar
    34     9    10   ar
    35    28    23    1
    36    10     1   ar
    37    34    29    1
    38     9     4   ar
    39    21    11    1
    40    20    14    1
@<TRIPOS>MOLECULE
*****
 35 40 0 0 0
SMALL
GASTEIGER

@<TRIPOS>ATOM
      1 C         142.9602  136.9962  157.2768 C.ar    1  UNL1        0.2227
      2 N         143.3616  138.2375  156.5365 N.ar    1  UNL1       -0.1986
      3 C         143.5942  139.5157  157.2862 C.ar    1  UNL1        0.1376
      4 C         143.4255  139.5526  158.7763 C.ar    1  UNL1        0.0676
      5 C         143.6581  140.8307  159.5260 C.ar    1  UNL1        0.0074
      6 C         143.4893  140.8676  161.0160 C.ar    1  UNL1        0.0193
      7 C         143.0879  139.6262  161.7563 C.ar    1  UNL1        0.0827
      8 N         142.8553  138.3481  161.0066 N.ar    1  UNL1       -0.2264
      9 C         143.0241  138.3112  159.5166 C.ar    1  UNL1        0.1678
     10 N         142.7915  137.0330  158.7668 N.ar    1  UNL1       -0.1944
     11 C         142.9192  139.6631  163.2464 C.2     1  UNL1        0.0140
     12 C         142.4453  138.4423  163.9779 C.2     1  UNL1       -0.0183
     13 C         142.2765  138.4792  165.4679 C.3     1  UNL1        0.0720
     14 C         142.5816  139.7368  166.2264 C.2     1  UNL1        0.0693
     15 N         142.4128  139.7737  167.7164 N.2     1  UNL1       -0.2301
     16 C         142.7179  141.0313  168.4748 C.2     1  UNL1        0.1880
     17 N         143.1918  142.2521  167.7433 N.am    1  UNL1       -0.1537
     18 C         143.3606  142.2152  166.2533 C.2     1  UNL1        0.2715
     19 O         143.8344  143.4360  165.5218 O.2     1  UNL1       -0.2679
     20 C         143.0555  140.9576  165.4949 C.2     1  UNL1        0.0694
     21 C         143.2242  140.9207  164.0048 C.2     1  UNL1        0.0070
     22 C         140.4568  136.6381  155.6629 C.3     1  UNL1        0.0242
     23 C         141.4760  135.5390  155.7200 C.3     1  UNL1        0.1052
     24 C         141.2434  134.2608  154.9703 C.3     1  UNL1        0.1619
     25 O         142.2625  133.1617  155.0275 O.3     1  UNL1       -0.3502
     26 C         143.5142  133.3407  155.8344 C.3     1  UNL1        0.1637
     27 C         143.7468  134.6189  156.5841 C.3     1  UNL1        0.1256
     28 N         142.7276  135.7180  156.5270 N.pl3   1  UNL1       -0.2747
     29 N         143.9956  140.7570  156.5460 N.pl3   1  UNL1       -0.2897
     30 C         145.4478  141.0725  156.3426 C.3     1  UNL1        0.1242
     31 C         145.8492  142.3138  155.6024 C.3     1  UNL1        0.1636
     32 O         144.7983  143.2397  155.0655 O.3     1  UNL1       -0.3502
     33 C         143.3460  142.9243  155.2688 C.3     1  UNL1        0.1618
     34 C         142.9446  141.6830  156.0091 C.3     1  UNL1        0.1038
     35 C         141.4924  141.3675  156.2124 C.3     1  UNL1        0.0241
@<TRIPOS>BOND
     1    23    22    1
     2    23    24    1
     3    24    25    1
     4    25    26    1
     5    26    27    1
     6    27    28    1
     7    28     1    1
     8     1     2   ar
     9     2     3   ar
    10     3    29    1
    11    29    30    1
    12    30    31    1
    13    31    32    1
    14    32    33    1
    15    33    34    1
    16    34    35    1
    17     3     4   ar
    18     4     5   ar
    19     5     6   ar
    20     6     7   ar
    21     7    11    1
    22    11    12    2
    23    12    13    1
    24    13    14    1
    25    14    15    2
    26    15    16    1
    27    16    17    2
    28    17    18    1
    29    18    19    2
    30    18    20    1
    31    20    21    2
    32     7     8   ar
    33     8     9   ar
    34     9    10   ar
    35    28    23    1
    36    10     1   ar
    37    34    29    1
    38     9     4   ar
    39    21    11    1
    40    20    14    1
