@<TRIPOS>MOLECULE
*****
 32 35 0 0 0
SMALL
GASTEIGER

@<TRIPOS>ATOM
      1 C         142.1370  142.1070  161.7101 C.ar    1  UNL1        0.1738
      2 C         141.9223  141.3163  162.9665 C.ar    1  UNL1        0.0576
      3 C         141.8897  142.0127  164.2946 C.ar    1  UNL1        0.0702
      4 C         142.0717  143.4998  164.3664 C.ar    1  UNL1        0.0209
      5 C         142.2863  144.2906  163.1100 C.ar    1  UNL1        0.0415
      6 C         142.3190  143.5942  161.7818 C.ar    1  UNL1        0.1724
      7 N         141.6750  141.2218  165.5511 N.ar    1  UNL1       -0.2705
      8 C         142.8394  140.8900  166.4365 C.ar    1  UNL1        0.1036
      9 C         142.6248  140.0992  167.6929 C.ar    1  UNL1        0.1177
     10 N         141.2458  139.6402  168.0639 N.ar    1  UNL1       -0.2418
     11 C         140.0813  139.9721  167.1785 C.ar    1  UNL1        0.1153
     12 C         140.2960  140.7629  165.9220 C.ar    1  UNL1        0.2783
     13 O         139.1316  141.0947  165.0366 O.2     1  UNL1       -0.2653
     14 C         138.7023  139.5131  167.5494 C.3     1  UNL1        0.0511
     15 C         137.9079  138.6752  166.5919 C.3     1  UNL1        0.0111
     16 C         138.5271  137.4609  165.9658 C.3     1  UNL1        0.0268
     17 C         139.3032  137.5887  164.6886 C.ar    1  UNL1       -0.0222
     18 C         138.5974  137.9479  163.4148 C.ar    1  UNL1       -0.0043
     19 C         139.3735  138.0757  162.1376 C.ar    1  UNL1       -0.0003
     20 C         140.8555  137.8442  162.1342 C.ar    1  UNL1       -0.0000
     21 C         141.5614  137.4850  163.4080 C.ar    1  UNL1       -0.0003
     22 C         140.7852  137.3572  164.6853 C.ar    1  UNL1       -0.0043
     23 C         143.2504  140.4141  160.0840 C.3     1  UNL1        0.2526
     24 O         142.1696  141.4106  160.3820 O.3     1  UNL1       -0.4683
     25 O         142.5336  144.3850  160.5254 O.3     1  UNL1       -0.4709
     26 C         141.3887  145.1256  159.9005 C.3     1  UNL1        0.2228
     27 C         140.0553  144.4553  159.7487 C.3     1  UNL1        0.1200
     28 N         139.2227  144.1586  160.9606 N.3     1  UNL1       -0.2696
     29 C         138.9724  145.0915  162.1083 C.3     1  UNL1        0.0722
     30 C         138.0892  144.3864  163.0946 C.3     1  UNL1        0.0188
     31 C         137.7937  143.0178  162.5564 C.3     1  UNL1        0.0188
     32 C         138.4942  142.8770  161.2376 C.3     1  UNL1        0.0722
@<TRIPOS>BOND
     1    23    24    1
     2    24     1    1
     3     1     2   ar
     4     2     3   ar
     5     3     7    1
     6     7     8   ar
     7     8     9   ar
     8     9    10   ar
     9    10    11   ar
    10    11    14    1
    11    14    15    1
    12    15    16    1
    13    16    17    1
    14    17    18   ar
    15    18    19   ar
    16    19    20   ar
    17    20    21   ar
    18    21    22   ar
    19    11    12   ar
    20    12    13    2
    21     3     4   ar
    22     4     5   ar
    23     5     6   ar
    24     6    25    1
    25    25    26    1
    26    26    27    1
    27    27    28    1
    28    28    29    1
    29    29    30    1
    30    30    31    1
    31    31    32    1
    32     6     1   ar
    33    32    28    1
    34    12     7   ar
    35    22    17   ar
@<TRIPOS>MOLECULE
*****
 32 35 0 0 0
SMALL
GASTEIGER

@<TRIPOS>ATOM
      1 C         139.8398  141.7266  161.6533 C.ar    1  UNL1        0.1738
      2 C         139.8505  141.0404  162.9871 C.ar    1  UNL1        0.0576
      3 C         138.8750  141.4514  164.0499 C.ar    1  UNL1        0.0702
      4 C         137.8888  142.5486  163.7789 C.ar    1  UNL1        0.0209
      5 C         137.8781  143.2349  162.4452 C.ar    1  UNL1        0.0415
      6 C         138.8536  142.8239  161.3824 C.ar    1  UNL1        0.1724
      7 N         138.8857  140.7651  165.3837 N.ar    1  UNL1       -0.2705
      8 C         138.0935  139.5076  165.5864 C.ar    1  UNL1        0.1036
      9 C         138.1042  138.8213  166.9201 C.ar    1  UNL1        0.1177
     10 N         138.9072  139.3925  168.0512 N.ar    1  UNL1       -0.2418
     11 C         139.6994  140.6500  167.8484 C.ar    1  UNL1        0.1153
     12 C         139.6886  141.3363  166.5146 C.ar    1  UNL1        0.2783
     13 O         140.4808  142.5938  166.3118 O.2     1  UNL1       -0.2653
     14 C         140.5022  141.2212  168.9793 C.3     1  UNL1        0.0511
     15 C         141.9106  140.7582  169.2080 C.3     1  UNL1        0.0111
     16 C         142.4393  139.5686  168.4629 C.3     1  UNL1        0.0268
     17 C         142.8082  139.6940  167.0144 C.ar    1  UNL1       -0.0222
     18 C         142.6044  138.5341  166.0853 C.ar    1  UNL1       -0.0043
     19 C         142.9732  138.6596  164.6368 C.ar    1  UNL1       -0.0003
     20 C         143.5458  139.9451  164.1173 C.ar    1  UNL1       -0.0000
     21 C         143.7496  141.1050  165.0464 C.ar    1  UNL1       -0.0003
     22 C         143.3808  140.9794  166.4949 C.ar    1  UNL1       -0.0043
     23 C         141.9782  140.4350  160.9399 C.3     1  UNL1        0.2526
     24 O         140.8153  141.3156  160.5905 O.3     1  UNL1       -0.4683
     25 O         138.8429  143.5102  160.0486 O.3     1  UNL1       -0.4709
     26 C         139.9787  144.4089  159.6584 C.3     1  UNL1        0.2228
     27 C         140.5247  145.3987  160.6444 C.3     1  UNL1        0.1200
     28 N         141.4055  144.9326  161.7655 N.3     1  UNL1       -0.2696
     29 C         142.6846  144.1626  161.6201 C.3     1  UNL1        0.0722
     30 C         143.2315  143.9088  162.9936 C.3     1  UNL1        0.0188
     31 C         142.2904  144.5219  163.9878 C.3     1  UNL1        0.0188
     32 C         141.1619  145.1546  163.2288 C.3     1  UNL1        0.0722
@<TRIPOS>BOND
     1    23    24    1
     2    24     1    1
     3     1     2   ar
     4     2     3   ar
     5     3     7    1
     6     7     8   ar
     7     8     9   ar
     8     9    10   ar
     9    10    11   ar
    10    11    14    1
    11    14    15    1
    12    15    16    1
    13    16    17    1
    14    17    18   ar
    15    18    19   ar
    16    19    20   ar
    17    20    21   ar
    18    21    22   ar
    19    11    12   ar
    20    12    13    2
    21     3     4   ar
    22     4     5   ar
    23     5     6   ar
    24     6    25    1
    25    25    26    1
    26    26    27    1
    27    27    28    1
    28    28    29    1
    29    29    30    1
    30    30    31    1
    31    31    32    1
    32     6     1   ar
    33    32    28    1
    34    12     7   ar
    35    22    17   ar
@<TRIPOS>MOLECULE
*****
 32 35 0 0 0
SMALL
GASTEIGER

@<TRIPOS>ATOM
      1 C         141.2607  144.5997  163.6591 C.ar    1  UNL1        0.1738
      2 C         141.1478  143.5169  164.6908 C.ar    1  UNL1        0.0576
      3 C         139.7969  143.0140  165.1057 C.ar    1  UNL1        0.0702
      4 C         138.5588  143.5941  164.4888 C.ar    1  UNL1        0.0209
      5 C         138.6716  144.6769  163.4570 C.ar    1  UNL1        0.0415
      6 C         140.0226  145.1798  163.0422 C.ar    1  UNL1        0.1724
      7 N         139.6841  141.9311  166.1375 N.ar    1  UNL1       -0.2705
      8 C         140.3795  142.0783  167.4584 C.ar    1  UNL1        0.1036
      9 C         140.2667  140.9955  168.4902 C.ar    1  UNL1        0.1177
     10 N         139.4585  139.7653  168.2011 N.ar    1  UNL1       -0.2418
     11 C         138.7631  139.6180  166.8803 C.ar    1  UNL1        0.1153
     12 C         138.8759  140.7010  165.8484 C.ar    1  UNL1        0.2783
     13 O         138.1805  140.5537  164.5276 O.2     1  UNL1       -0.2653
     14 C         137.9549  138.3879  166.5912 C.3     1  UNL1        0.0511
     15 C         138.5777  137.2362  165.8593 C.3     1  UNL1        0.0111
     16 C         138.8479  137.3408  164.3875 C.3     1  UNL1        0.0268
     17 C         140.2245  137.6835  163.9001 C.ar    1  UNL1       -0.0222
     18 C         141.3059  138.0208  164.8834 C.ar    1  UNL1       -0.0043
     19 C         142.6825  138.3635  164.3960 C.ar    1  UNL1       -0.0003
     20 C         142.9777  138.3688  162.9254 C.ar    1  UNL1       -0.0000
     21 C         141.8964  138.0315  161.9421 C.ar    1  UNL1       -0.0003
     22 C         140.5197  137.6888  162.4295 C.ar    1  UNL1       -0.0043
     23 C         143.7824  144.1656  163.2093 C.3     1  UNL1        0.2526
     24 O         142.6116  145.1026  163.2442 O.3     1  UNL1       -0.4683
     25 O         140.1354  146.2627  162.0103 O.3     1  UNL1       -0.4709
     26 C         140.0987  145.9155  160.5516 C.3     1  UNL1        0.2228
     27 C         141.2317  145.1507  159.9339 C.3     1  UNL1        0.1200
     28 N         141.3167  143.6635  160.1099 N.3     1  UNL1       -0.2696
     29 C         140.1823  142.7527  160.4754 C.3     1  UNL1        0.0722
     30 C         140.7155  141.3522  160.5427 C.3     1  UNL1        0.0188
     31 C         142.1794  141.3976  160.2186 C.3     1  UNL1        0.0188
     32 C         142.5509  142.8260  159.9512 C.3     1  UNL1        0.0722
@<TRIPOS>BOND
     1    23    24    1
     2    24     1    1
     3     1     2   ar
     4     2     3   ar
     5     3     7    1
     6     7     8   ar
     7     8     9   ar
     8     9    10   ar
     9    10    11   ar
    10    11    14    1
    11    14    15    1
    12    15    16    1
    13    16    17    1
    14    17    18   ar
    15    18    19   ar
    16    19    20   ar
    17    20    21   ar
    18    21    22   ar
    19    11    12   ar
    20    12    13    2
    21     3     4   ar
    22     4     5   ar
    23     5     6   ar
    24     6    25    1
    25    25    26    1
    26    26    27    1
    27    27    28    1
    28    28    29    1
    29    29    30    1
    30    30    31    1
    31    31    32    1
    32     6     1   ar
    33    32    28    1
    34    12     7   ar
    35    22    17   ar
@<TRIPOS>MOLECULE
*****
 32 35 0 0 0
SMALL
GASTEIGER

@<TRIPOS>ATOM
      1 C         139.1167  142.8865  161.1624 C.ar    1  UNL1        0.1738
      2 C         140.2368  142.7458  162.1500 C.ar    1  UNL1        0.0576
      3 C         141.6533  142.6414  161.6677 C.ar    1  UNL1        0.0702
      4 C         141.9496  142.6778  160.1977 C.ar    1  UNL1        0.0209
      5 C         140.8295  142.8186  159.2101 C.ar    1  UNL1        0.0415
      6 C         139.4130  142.9229  159.6925 C.ar    1  UNL1        0.1724
      7 N         142.7735  142.5007  162.6554 N.ar    1  UNL1       -0.2705
      8 C         143.3605  143.7200  163.3024 C.ar    1  UNL1        0.1036
      9 C         144.4806  143.5793  164.2901 C.ar    1  UNL1        0.1177
     10 N         145.0138  142.2192  164.6307 N.ar    1  UNL1       -0.2418
     11 C         144.4268  140.9999  163.9836 C.ar    1  UNL1        0.1153
     12 C         143.3066  141.1406  162.9959 C.ar    1  UNL1        0.2783
     13 O         142.7197  139.9213  162.3489 O.2     1  UNL1       -0.2653
     14 C         144.9600  139.6398  164.3242 C.3     1  UNL1        0.0511
     15 C         144.2401  138.7800  165.3204 C.3     1  UNL1        0.0111
     16 C         143.1095  139.3500  166.1247 C.3     1  UNL1        0.0268
     17 C         141.6945  138.9694  165.8041 C.ar    1  UNL1       -0.0222
     18 C         141.4178  137.8624  164.8305 C.ar    1  UNL1       -0.0043
     19 C         140.0027  137.4819  164.5099 C.ar    1  UNL1       -0.0003
     20 C         138.8643  138.2083  165.1629 C.ar    1  UNL1       -0.0000
     21 C         139.1411  139.3153  166.1366 C.ar    1  UNL1       -0.0003
     22 C         140.5562  139.6959  166.4572 C.ar    1  UNL1       -0.0043
     23 C         137.3424  142.5293  163.0264 C.3     1  UNL1        0.2526
     24 O         137.7002  142.9909  161.6448 O.3     1  UNL1       -0.4683
     25 O         138.2928  143.0637  158.7048 O.3     1  UNL1       -0.4709
     26 C         138.1146  142.0410  157.6221 C.3     1  UNL1        0.2228
     27 C         137.5571  140.6882  157.9526 C.3     1  UNL1        0.1200
     28 N         138.0722  139.9351  159.1431 N.3     1  UNL1       -0.2696
     29 C         137.3539  139.7483  160.4466 C.3     1  UNL1        0.0722
     30 C         138.2339  138.9343  161.3483 C.3     1  UNL1        0.0188
     31 C         139.4961  138.6179  160.6019 C.3     1  UNL1        0.0188
     32 C         139.3961  139.2365  159.2391 C.3     1  UNL1        0.0722
@<TRIPOS>BOND
     1    23    24    1
     2    24     1    1
     3     1     2   ar
     4     2     3   ar
     5     3     7    1
     6     7     8   ar
     7     8     9   ar
     8     9    10   ar
     9    10    11   ar
    10    11    14    1
    11    14    15    1
    12    15    16    1
    13    16    17    1
    14    17    18   ar
    15    18    19   ar
    16    19    20   ar
    17    20    21   ar
    18    21    22   ar
    19    11    12   ar
    20    12    13    2
    21     3     4   ar
    22     4     5   ar
    23     5     6   ar
    24     6    25    1
    25    25    26    1
    26    26    27    1
    27    27    28    1
    28    28    29    1
    29    29    30    1
    30    30    31    1
    31    31    32    1
    32     6     1   ar
    33    32    28    1
    34    12     7   ar
    35    22    17   ar
@<TRIPOS>MOLECULE
*****
 32 35 0 0 0
SMALL
GASTEIGER

@<TRIPOS>ATOM
      1 C         140.6677  142.2659  160.8483 C.ar    1  UNL1        0.1738
      2 C         140.5057  141.1429  161.8293 C.ar    1  UNL1        0.0576
      3 C         139.1489  140.8184  162.3806 C.ar    1  UNL1        0.0702
      4 C         137.9541  141.6169  161.9508 C.ar    1  UNL1        0.0209
      5 C         138.1161  142.7400  160.9698 C.ar    1  UNL1        0.0415
      6 C         139.4729  143.0645  160.4185 C.ar    1  UNL1        0.1724
      7 N         138.9870  139.6952  163.3617 N.ar    1  UNL1       -0.2705
      8 C         139.2218  138.2792  162.9261 C.ar    1  UNL1        0.1036
      9 C         139.0599  137.1561  163.9071 C.ar    1  UNL1        0.1177
     10 N         138.6632  137.4490  165.3237 N.ar    1  UNL1       -0.2418
     11 C         138.4284  138.8651  165.7593 C.ar    1  UNL1        0.1153
     12 C         138.5903  139.9882  164.7783 C.ar    1  UNL1        0.2783
     13 O         138.3556  141.4042  165.2139 O.2     1  UNL1       -0.2653
     14 C         138.0317  139.1580  167.1759 C.3     1  UNL1        0.0511
     15 C         139.0690  139.5830  168.1726 C.3     1  UNL1        0.0111
     16 C         140.3903  140.1133  167.7001 C.3     1  UNL1        0.0268
     17 C         141.1511  141.0918  168.5449 C.ar    1  UNL1       -0.0222
     18 C         142.5804  140.8170  168.9077 C.ar    1  UNL1       -0.0043
     19 C         143.3412  141.7955  169.7525 C.ar    1  UNL1       -0.0003
     20 C         142.6727  143.0488  170.2346 C.ar    1  UNL1       -0.0000
     21 C         141.2434  143.3236  169.8719 C.ar    1  UNL1       -0.0003
     22 C         140.4826  142.3450  169.0270 C.ar    1  UNL1       -0.0043
     23 C         142.8414  141.5197  159.6368 C.3     1  UNL1        0.2526
     24 O         142.0244  142.5904  160.2970 O.3     1  UNL1       -0.4683
     25 O         139.6348  144.1876  159.4374 O.3     1  UNL1       -0.4709
     26 C         140.2598  145.4797  159.8730 C.3     1  UNL1        0.2228
     27 C         139.8962  146.0792  161.1991 C.3     1  UNL1        0.1200
     28 N         140.3171  145.4014  162.4693 N.3     1  UNL1       -0.2696
     29 C         139.4060  144.9542  163.5739 C.3     1  UNL1        0.0722
     30 C         140.2489  144.3282  164.6452 C.3     1  UNL1        0.0188
     31 C         141.6809  144.3885  164.2027 C.3     1  UNL1        0.0188
     32 C         141.7231  145.0518  162.8580 C.3     1  UNL1        0.0722
@<TRIPOS>BOND
     1    23    24    1
     2    24     1    1
     3     1     2   ar
     4     2     3   ar
     5     3     7    1
     6     7     8   ar
     7     8     9   ar
     8     9    10   ar
     9    10    11   ar
    10    11    14    1
    11    14    15    1
    12    15    16    1
    13    16    17    1
    14    17    18   ar
    15    18    19   ar
    16    19    20   ar
    17    20    21   ar
    18    21    22   ar
    19    11    12   ar
    20    12    13    2
    21     3     4   ar
    22     4     5   ar
    23     5     6   ar
    24     6    25    1
    25    25    26    1
    26    26    27    1
    27    27    28    1
    28    28    29    1
    29    29    30    1
    30    30    31    1
    31    31    32    1
    32     6     1   ar
    33    32    28    1
    34    12     7   ar
    35    22    17   ar
@<TRIPOS>MOLECULE
*****
 32 35 0 0 0
SMALL
GASTEIGER

@<TRIPOS>ATOM
      1 C         142.1986  143.6057  160.7603 C.ar    1  UNL1        0.1738
      2 C         141.8957  142.8925  162.0447 C.ar    1  UNL1        0.0576
      3 C         140.8482  143.4318  162.9731 C.ar    1  UNL1        0.0702
      4 C         140.1036  144.6843  162.6171 C.ar    1  UNL1        0.0209
      5 C         140.4064  145.3974  161.3327 C.ar    1  UNL1        0.0415
      6 C         141.4539  144.8581  160.4044 C.ar    1  UNL1        0.1724
      7 N         140.5454  142.7185  164.2575 N.ar    1  UNL1       -0.2705
      8 C         141.3261  143.0417  165.4969 C.ar    1  UNL1        0.1036
      9 C         141.0233  142.3285  166.7812 C.ar    1  UNL1        0.1177
     10 N         139.9397  141.2921  166.8263 N.ar    1  UNL1       -0.2418
     11 C         139.1590  140.9690  165.5869 C.ar    1  UNL1        0.1153
     12 C         139.4619  141.6822  164.3024 C.ar    1  UNL1        0.2783
     13 O         138.6812  141.3591  163.0630 O.2     1  UNL1       -0.2653
     14 C         138.0756  139.9327  165.6318 C.3     1  UNL1        0.0511
     15 C         138.3418  138.5960  166.2583 C.3     1  UNL1        0.0111
     16 C         138.6872  137.4187  165.3954 C.3     1  UNL1        0.0268
     17 C         139.5100  137.6127  164.1563 C.ar    1  UNL1       -0.0222
     18 C         138.8353  137.8045  162.8304 C.ar    1  UNL1       -0.0043
     19 C         139.6581  137.9986  161.5913 C.ar    1  UNL1       -0.0003
     20 C         141.1557  138.0007  161.6781 C.ar    1  UNL1       -0.0000
     21 C         141.8303  137.8089  163.0040 C.ar    1  UNL1       -0.0003
     22 C         141.0074  137.6149  164.2431 C.ar    1  UNL1       -0.0043
     23 C         144.5373  142.5388  160.3835 C.3     1  UNL1        0.2526
     24 O         143.2461  143.0664  159.8319 O.3     1  UNL1       -0.4683
     25 O         141.7568  145.5714  159.1199 O.3     1  UNL1       -0.4709
     26 C         141.2450  145.0252  157.8201 C.3     1  UNL1        0.2228
     27 C         139.8968  144.3702  157.7606 C.3     1  UNL1        0.1200
     28 N         139.7121  142.9837  158.3023 N.3     1  UNL1       -0.2696
     29 C         138.7043  142.5664  159.3321 C.3     1  UNL1        0.0722
     30 C         138.8721  141.0959  159.5756 C.3     1  UNL1        0.0188
     31 C         139.9836  140.6043  158.6964 C.3     1  UNL1        0.0188
     32 C         140.5027  141.7710  157.9095 C.3     1  UNL1        0.0722
@<TRIPOS>BOND
     1    23    24    1
     2    24     1    1
     3     1     2   ar
     4     2     3   ar
     5     3     7    1
     6     7     8   ar
     7     8     9   ar
     8     9    10   ar
     9    10    11   ar
    10    11    14    1
    11    14    15    1
    12    15    16    1
    13    16    17    1
    14    17    18   ar
    15    18    19   ar
    16    19    20   ar
    17    20    21   ar
    18    21    22   ar
    19    11    12   ar
    20    12    13    2
    21     3     4   ar
    22     4     5   ar
    23     5     6   ar
    24     6    25    1
    25    25    26    1
    26    26    27    1
    27    27    28    1
    28    28    29    1
    29    29    30    1
    30    30    31    1
    31    31    32    1
    32     6     1   ar
    33    32    28    1
    34    12     7   ar
    35    22    17   ar
@<TRIPOS>MOLECULE
*****
 32 35 0 0 0
SMALL
GASTEIGER

@<TRIPOS>ATOM
      1 C         143.9163  140.5918  159.5308 C.ar    1  UNL1        0.1738
      2 C         143.5964  139.8424  160.7901 C.ar    1  UNL1        0.0576
      3 C         143.4313  140.5845  162.0831 C.ar    1  UNL1        0.0702
      4 C         143.5861  142.0761  162.1169 C.ar    1  UNL1        0.0209
      5 C         143.9060  142.8255  160.8575 C.ar    1  UNL1        0.0415
      6 C         144.0711  142.0834  159.5645 C.ar    1  UNL1        0.1724
      7 N         143.1113  139.8350  163.3425 N.ar    1  UNL1       -0.2705
      8 C         144.2083  139.4747  164.3001 C.ar    1  UNL1        0.1036
      9 C         143.8884  138.7252  165.5594 C.ar    1  UNL1        0.1177
     10 N         142.4715  138.3360  165.8612 N.ar    1  UNL1       -0.2418
     11 C         141.3745  138.6963  164.9037 C.ar    1  UNL1        0.1153
     12 C         141.6945  139.4458  163.6443 C.ar    1  UNL1        0.2783
     13 O         140.5976  139.8062  162.6867 O.2     1  UNL1       -0.2653
     14 C         139.9577  138.3072  165.2054 C.3     1  UNL1        0.0511
     15 C         139.0434  139.2779  165.8922 C.3     1  UNL1        0.0111
     16 C         138.1756  140.1936  165.0808 C.3     1  UNL1        0.0268
     17 C         138.5405  141.6414  164.9379 C.ar    1  UNL1       -0.0222
     18 C         139.8418  142.1448  165.4886 C.ar    1  UNL1       -0.0043
     19 C         140.2068  143.5926  165.3457 C.ar    1  UNL1       -0.0003
     20 C         139.2705  144.5372  164.6520 C.ar    1  UNL1       -0.0000
     21 C         137.9692  144.0338  164.1012 C.ar    1  UNL1       -0.0003
     22 C         137.6043  142.5859  164.2442 C.ar    1  UNL1       -0.0043
     23 C         142.8913  139.2186  157.5779 C.3     1  UNL1        0.2526
     24 O         144.0814  139.8497  158.2377 O.3     1  UNL1       -0.4683
     25 O         144.3911  142.8329  158.3051 O.3     1  UNL1       -0.4709
     26 C         143.2848  143.2745  157.3935 C.3     1  UNL1        0.2228
     27 C         142.3930  144.4126  157.7930 C.3     1  UNL1        0.1200
     28 N         141.4081  144.2371  158.9106 N.3     1  UNL1       -0.2696
     29 C         140.5221  143.0461  159.1262 C.3     1  UNL1        0.0722
     30 C         139.7027  143.2947  160.3578 C.3     1  UNL1        0.0188
     31 C         140.0824  144.6395  160.9034 C.3     1  UNL1        0.0188
     32 C         141.1364  145.2218  160.0090 C.3     1  UNL1        0.0722
@<TRIPOS>BOND
     1    23    24    1
     2    24     1    1
     3     1     2   ar
     4     2     3   ar
     5     3     7    1
     6     7     8   ar
     7     8     9   ar
     8     9    10   ar
     9    10    11   ar
    10    11    14    1
    11    14    15    1
    12    15    16    1
    13    16    17    1
    14    17    18   ar
    15    18    19   ar
    16    19    20   ar
    17    20    21   ar
    18    21    22   ar
    19    11    12   ar
    20    12    13    2
    21     3     4   ar
    22     4     5   ar
    23     5     6   ar
    24     6    25    1
    25    25    26    1
    26    26    27    1
    27    27    28    1
    28    28    29    1
    29    29    30    1
    30    30    31    1
    31    31    32    1
    32     6     1   ar
    33    32    28    1
    34    12     7   ar
    35    22    17   ar
@<TRIPOS>MOLECULE
*****
 32 35 0 0 0
SMALL
GASTEIGER

@<TRIPOS>ATOM
      1 C         142.3005  143.7933  160.3912 C.ar    1  UNL1        0.1738
      2 C         141.9065  143.0010  161.6024 C.ar    1  UNL1        0.0576
      3 C         140.6686  143.3658  162.3671 C.ar    1  UNL1        0.0702
      4 C         139.8249  144.5228  161.9206 C.ar    1  UNL1        0.0209
      5 C         140.2190  145.3150  160.7095 C.ar    1  UNL1        0.0415
      6 C         141.4568  144.9503  159.9448 C.ar    1  UNL1        0.1724
      7 N         140.2746  142.5734  163.5783 N.ar    1  UNL1       -0.2705
      8 C         140.4687  143.1518  164.9487 C.ar    1  UNL1        0.1036
      9 C         140.0747  142.3596  166.1599 C.ar    1  UNL1        0.1177
     10 N         139.4865  140.9889  166.0008 N.ar    1  UNL1       -0.2418
     11 C         139.2924  140.4104  164.6305 C.ar    1  UNL1        0.1153
     12 C         139.6864  141.2028  163.4192 C.ar    1  UNL1        0.2783
     13 O         139.4923  140.6244  162.0489 O.2     1  UNL1       -0.2653
     14 C         138.7043  139.0398  164.4713 C.3     1  UNL1        0.0511
     15 C         139.4343  137.8437  165.0064 C.3     1  UNL1        0.0111
     16 C         140.5658  137.2442  164.2251 C.3     1  UNL1        0.0268
     17 C         141.8865  137.9519  164.1547 C.ar    1  UNL1       -0.0222
     18 C         142.6120  138.3131  165.4169 C.ar    1  UNL1       -0.0043
     19 C         143.9326  139.0208  165.3465 C.ar    1  UNL1       -0.0003
     20 C         144.5278  139.3673  164.0139 C.ar    1  UNL1       -0.0000
     21 C         143.8023  139.0061  162.7517 C.ar    1  UNL1       -0.0003
     22 C         142.4816  138.2983  162.8221 C.ar    1  UNL1       -0.0043
     23 C         144.1353  142.0604  159.7742 C.3     1  UNL1        0.2526
     24 O         143.5383  143.4285  159.6265 O.3     1  UNL1       -0.4683
     25 O         141.8508  145.7426  158.7335 O.3     1  UNL1       -0.4709
     26 C         141.4105  145.2977  157.3704 C.3     1  UNL1        0.2228
     27 C         140.0155  145.5875  156.9011 C.3     1  UNL1        0.1200
     28 N         139.7378  146.8173  156.0886 N.3     1  UNL1       -0.2696
     29 C         140.2827  147.1133  154.7227 C.3     1  UNL1        0.0722
     30 C         139.7482  148.4461  154.2892 C.3     1  UNL1        0.0188
     31 C         138.8729  148.9738  155.3872 C.3     1  UNL1        0.0188
     32 C         138.8665  147.9672  156.4992 C.3     1  UNL1        0.0722
@<TRIPOS>BOND
     1    23    24    1
     2    24     1    1
     3     1     2   ar
     4     2     3   ar
     5     3     7    1
     6     7     8   ar
     7     8     9   ar
     8     9    10   ar
     9    10    11   ar
    10    11    14    1
    11    14    15    1
    12    15    16    1
    13    16    17    1
    14    17    18   ar
    15    18    19   ar
    16    19    20   ar
    17    20    21   ar
    18    21    22   ar
    19    11    12   ar
    20    12    13    2
    21     3     4   ar
    22     4     5   ar
    23     5     6   ar
    24     6    25    1
    25    25    26    1
    26    26    27    1
    27    27    28    1
    28    28    29    1
    29    29    30    1
    30    30    31    1
    31    31    32    1
    32     6     1   ar
    33    32    28    1
    34    12     7   ar
    35    22    17   ar
@<TRIPOS>MOLECULE
*****
 32 35 0 0 0
SMALL
GASTEIGER

@<TRIPOS>ATOM
      1 C         140.8543  141.5046  159.6328 C.ar    1  UNL1        0.1738
      2 C         140.7383  140.6429  160.8550 C.ar    1  UNL1        0.0576
      3 C         139.5162  140.7294  161.7205 C.ar    1  UNL1        0.0702
      4 C         138.4102  141.6778  161.3638 C.ar    1  UNL1        0.0209
      5 C         138.5262  142.5395  160.1415 C.ar    1  UNL1        0.0415
      6 C         139.7483  142.4530  159.2760 C.ar    1  UNL1        0.1724
      7 N         139.4002  139.8676  162.9428 N.ar    1  UNL1       -0.2705
      8 C         138.9804  138.4335  162.8121 C.ar    1  UNL1        0.1036
      9 C         138.8644  137.5717  164.0343 C.ar    1  UNL1        0.1177
     10 N         139.1683  138.1440  165.3872 N.ar    1  UNL1       -0.2418
     11 C         139.5881  139.5781  165.5178 C.ar    1  UNL1        0.1153
     12 C         139.7041  140.4399  164.2956 C.ar    1  UNL1        0.2783
     13 O         140.1239  141.8740  164.4262 O.2     1  UNL1       -0.2653
     14 C         139.8919  140.1504  166.8706 C.3     1  UNL1        0.0511
     15 C         141.3027  140.1626  167.3801 C.3     1  UNL1        0.0111
     16 C         142.3981  139.5346  166.5703 C.3     1  UNL1        0.0268
     17 C         143.3027  140.3942  165.7381 C.ar    1  UNL1       -0.0222
     18 C         144.2172  139.7643  164.7296 C.ar    1  UNL1       -0.0043
     19 C         145.1218  140.6239  163.8974 C.ar    1  UNL1       -0.0003
     20 C         145.1120  142.1136  164.0735 C.ar    1  UNL1       -0.0000
     21 C         144.1975  142.7435  165.0820 C.ar    1  UNL1       -0.0003
     22 C         143.2929  141.8838  165.9142 C.ar    1  UNL1       -0.0043
     23 C         143.3811  141.9757  159.2538 C.3     1  UNL1        0.2526
     24 O         142.0764  141.4180  158.7673 O.3     1  UNL1       -0.4683
     25 O         139.8643  143.3148  158.0538 O.3     1  UNL1       -0.4709
     26 C         140.2191  144.7658  158.1901 C.3     1  UNL1        0.2228
     27 C         141.3241  145.1841  159.1143 C.3     1  UNL1        0.1200
     28 N         141.1118  145.1543  160.5989 N.3     1  UNL1       -0.2696
     29 C         141.9961  144.4756  161.6026 C.3     1  UNL1        0.0722
     30 C         141.4088  144.6998  162.9645 C.3     1  UNL1        0.0188
     31 C         140.1615  145.5171  162.8024 C.3     1  UNL1        0.0188
     32 C         139.9779  145.7980  161.3405 C.3     1  UNL1        0.0722
@<TRIPOS>BOND
     1    23    24    1
     2    24     1    1
     3     1     2   ar
     4     2     3   ar
     5     3     7    1
     6     7     8   ar
     7     8     9   ar
     8     9    10   ar
     9    10    11   ar
    10    11    14    1
    11    14    15    1
    12    15    16    1
    13    16    17    1
    14    17    18   ar
    15    18    19   ar
    16    19    20   ar
    17    20    21   ar
    18    21    22   ar
    19    11    12   ar
    20    12    13    2
    21     3     4   ar
    22     4     5   ar
    23     5     6   ar
    24     6    25    1
    25    25    26    1
    26    26    27    1
    27    27    28    1
    28    28    29    1
    29    29    30    1
    30    30    31    1
    31    31    32    1
    32     6     1   ar
    33    32    28    1
    34    12     7   ar
    35    22    17   ar
