@<TRIPOS>MOLECULE
*****
 30 33 0 0 0
SMALL
GASTEIGER

@<TRIPOS>ATOM
      1 O         142.1102  145.2674  159.1668 O.2     1  UNL1       -0.2526
      2 C         140.7357  144.8688  159.6161 C.2     1  UNL1        0.3042
      3 N         139.6731  144.5669  158.6013 N.am    1  UNL1       -0.2850
      4 N         140.4237  144.7722  161.0802 N.am    1  UNL1       -0.2639
      5 C         139.2082  144.4179  161.8845 C.3     1  UNL1        0.1003
      6 C         139.9826  144.6355  163.1505 C.3     1  UNL1        0.0834
      7 C         141.1981  144.9899  162.3462 C.3     1  UNL1        0.1003
      8 H         138.7710  144.3053  158.8962 H       1  UNL1        0.1513
      9 C         139.9851  144.6636  157.1373 C.3     1  UNL1        0.1138
     10 C         139.8183  145.9702  156.4196 C.2     1  UNL1       -0.0202
     11 C         140.3438  146.1318  155.0241 C.2     1  UNL1       -0.0050
     12 C         140.1771  147.4385  154.3065 C.2     1  UNL1        0.0182
     13 C         139.4848  148.5835  154.9845 C.2     1  UNL1        0.0777
     14 N         139.1756  149.9796  154.5315 N.2     1  UNL1       -0.2442
     15 C         138.4590  150.6808  155.6472 C.2     1  UNL1        0.0985
     16 C         138.3254  149.7181  156.7897 C.2     1  UNL1        0.0182
     17 C         138.9594  148.4218  156.3801 C.2     1  UNL1        0.0011
     18 C         139.1261  147.1152  157.0977 C.3     1  UNL1        0.0515
     19 C         139.6707  144.5389  164.6145 C.3     1  UNL1        0.2087
     20 O         140.4020  143.5503  165.4737 O.3     1  UNL1       -0.4753
     21 C         139.8056  142.1993  165.7361 C.ar    1  UNL1        0.1385
     22 C         140.2383  141.4087  166.9352 C.ar    1  UNL1        0.0368
     23 C         139.6420  140.0576  167.1977 C.ar    1  UNL1        0.0070
     24 C         138.6131  139.4971  166.2612 C.ar    1  UNL1        0.0716
     25 C         138.1804  140.2877  165.0621 C.ar    1  UNL1        0.0070
     26 C         138.7767  141.6388  164.7996 C.ar    1  UNL1        0.0368
     27 C         138.0167  138.1460  166.5236 C.3     1  UNL1        0.4186
     28 F         137.4203  136.7948  166.7862 F       1  UNL1       -0.1659
     29 F         137.2621  138.7061  167.6928 F       1  UNL1       -0.1659
     30 F         138.7712  137.5858  165.3545 F       1  UNL1       -0.1659
@<TRIPOS>BOND
     1     1     2    2
     2     2     3   am
     3     3     9    1
     4     9    10    1
     5    10    11    2
     6    11    12    1
     7    12    13    2
     8    13    14    1
     9    14    15    2
    10    15    16    1
    11    16    17    2
    12    17    18    1
    13     2     4   am
    14     4     5    1
    15     5     6    1
    16     6    19    1
    17    19    20    1
    18    20    21    1
    19    21    22   ar
    20    22    23   ar
    21    23    24   ar
    22    24    27    1
    23    27    28    1
    24    27    29    1
    25    27    30    1
    26    24    25   ar
    27    25    26   ar
    28     6     7    1
    29    18    10    1
    30     7     4    1
    31    17    13    1
    32    26    21   ar
    33     3     8    1
@<TRIPOS>MOLECULE
*****
 30 33 0 0 0
SMALL
GASTEIGER

@<TRIPOS>ATOM
      1 O         139.5771  138.3385  164.0541 O.2     1  UNL1       -0.2526
      2 C         138.7223  139.5706  164.0200 C.2     1  UNL1        0.3042
      3 N         137.9976  140.0151  165.2558 N.am    1  UNL1       -0.2850
      4 N         138.5921  140.3583  162.7500 N.am    1  UNL1       -0.2639
      5 C         137.8552  141.5996  162.3427 C.3     1  UNL1        0.1003
      6 C         138.4080  141.4720  160.9541 C.3     1  UNL1        0.0834
      7 C         139.1449  140.2307  161.3614 C.3     1  UNL1        0.1003
      8 H         137.4366  140.8238  165.2335 H       1  UNL1        0.1513
      9 C         138.1278  139.2275  166.5258 C.3     1  UNL1        0.1138
     10 C         139.0463  139.7029  167.6123 C.2     1  UNL1       -0.0202
     11 C         138.5502  139.8006  169.0244 C.2     1  UNL1       -0.0050
     12 C         139.4687  140.2760  170.1109 C.2     1  UNL1        0.0182
     13 C         140.8833  140.6538  169.7852 C.2     1  UNL1        0.0777
     14 N         142.0110  141.1524  170.6393 N.2     1  UNL1       -0.2442
     15 C         143.2041  141.3630  169.7549 C.2     1  UNL1        0.0985
     16 C         142.8138  140.9944  168.3542 C.2     1  UNL1        0.0182
     17 C         141.3794  140.5561  168.3729 C.2     1  UNL1        0.0011
     18 C         140.4609  140.0807  167.2865 C.3     1  UNL1        0.0515
     19 C         138.2778  142.2596  159.6842 C.3     1  UNL1        0.2087
     20 O         139.0616  143.5257  159.5031 O.3     1  UNL1       -0.4753
     21 C         140.1054  143.9119  160.5086 C.ar    1  UNL1        0.1385
     22 C         139.7569  144.8436  161.6313 C.ar    1  UNL1        0.0368
     23 C         140.8007  145.2299  162.6369 C.ar    1  UNL1        0.0070
     24 C         142.1931  144.6845  162.5197 C.ar    1  UNL1        0.0716
     25 C         142.5417  143.7528  161.3970 C.ar    1  UNL1        0.0070
     26 C         141.4978  143.3665  160.3914 C.ar    1  UNL1        0.0368
     27 C         143.2370  145.0707  163.5253 C.3     1  UNL1        0.4186
     28 F         144.2810  145.4568  164.5308 F       1  UNL1       -0.1659
     29 F         144.2765  144.3422  162.7259 F       1  UNL1       -0.1659
     30 F         142.1976  145.7991  164.3247 F       1  UNL1       -0.1659
@<TRIPOS>BOND
     1     1     2    2
     2     2     3   am
     3     3     9    1
     4     9    10    1
     5    10    11    2
     6    11    12    1
     7    12    13    2
     8    13    14    1
     9    14    15    2
    10    15    16    1
    11    16    17    2
    12    17    18    1
    13     2     4   am
    14     4     5    1
    15     5     6    1
    16     6    19    1
    17    19    20    1
    18    20    21    1
    19    21    22   ar
    20    22    23   ar
    21    23    24   ar
    22    24    27    1
    23    27    28    1
    24    27    29    1
    25    27    30    1
    26    24    25   ar
    27    25    26   ar
    28     6     7    1
    29    18    10    1
    30     7     4    1
    31    17    13    1
    32    26    21   ar
    33     3     8    1
@<TRIPOS>MOLECULE
*****
 30 33 0 0 0
SMALL
GASTEIGER

@<TRIPOS>ATOM
      1 O         141.4204  137.1079  164.7869 O.2     1  UNL1       -0.2526
      2 C         141.7141  138.5109  164.3446 C.2     1  UNL1        0.3042
      3 N         142.5545  139.4078  165.2042 N.am    1  UNL1       -0.2850
      4 N         141.1673  139.0168  163.0426 N.am    1  UNL1       -0.2639
      5 C         141.2437  140.3134  162.2924 C.3     1  UNL1        0.1003
      6 C         140.3940  139.7322  161.2014 C.3     1  UNL1        0.0834
      7 C         140.3176  138.4355  161.9516 C.3     1  UNL1        0.1003
      8 H         142.7473  140.3286  164.9140 H       1  UNL1        0.1513
      9 C         143.1013  138.9019  166.5062 C.3     1  UNL1        0.1138
     10 C         142.5781  139.4474  167.8019 C.2     1  UNL1       -0.0202
     11 C         142.9230  138.7697  169.0948 C.2     1  UNL1       -0.0050
     12 C         142.3998  139.3151  170.3905 C.2     1  UNL1        0.0182
     13 C         141.5317  140.5384  170.3932 C.2     1  UNL1        0.0777
     14 N         140.8743  141.3001  171.5056 N.2     1  UNL1       -0.2442
     15 C         140.1231  142.4487  170.9002 C.2     1  UNL1        0.0985
     16 C         140.3162  142.3968  169.4136 C.2     1  UNL1        0.0182
     17 C         141.1868  141.2161  169.1002 C.2     1  UNL1        0.0011
     18 C         141.7100  140.6706  167.8046 C.3     1  UNL1        0.0515
     19 C         139.8472  140.2381  159.8994 C.3     1  UNL1        0.2087
     20 O         138.9885  141.4677  159.8737 O.3     1  UNL1       -0.4753
     21 C         138.8146  142.2872  161.1179 C.ar    1  UNL1        0.1385
     22 C         137.7914  141.8904  162.1404 C.ar    1  UNL1        0.0368
     23 C         137.6174  142.7098  163.3846 C.ar    1  UNL1        0.0070
     24 C         138.4667  143.9262  163.6064 C.ar    1  UNL1        0.0716
     25 C         139.4899  144.3231  162.5839 C.ar    1  UNL1        0.0070
     26 C         139.6639  143.5036  161.3396 C.ar    1  UNL1        0.0368
     27 C         138.2928  144.7457  164.8506 C.3     1  UNL1        0.4186
     28 F         138.1189  145.5653  166.0949 F       1  UNL1       -0.1659
     29 F         136.9946  144.0476  165.1290 F       1  UNL1       -0.1659
     30 F         139.5909  145.4439  164.5722 F       1  UNL1       -0.1659
@<TRIPOS>BOND
     1     1     2    2
     2     2     3   am
     3     3     9    1
     4     9    10    1
     5    10    11    2
     6    11    12    1
     7    12    13    2
     8    13    14    1
     9    14    15    2
    10    15    16    1
    11    16    17    2
    12    17    18    1
    13     2     4   am
    14     4     5    1
    15     5     6    1
    16     6    19    1
    17    19    20    1
    18    20    21    1
    19    21    22   ar
    20    22    23   ar
    21    23    24   ar
    22    24    27    1
    23    27    28    1
    24    27    29    1
    25    27    30    1
    26    24    25   ar
    27    25    26   ar
    28     6     7    1
    29    18    10    1
    30     7     4    1
    31    17    13    1
    32    26    21   ar
    33     3     8    1
@<TRIPOS>MOLECULE
*****
 30 33 0 0 0
SMALL
GASTEIGER

@<TRIPOS>ATOM
      1 O         143.0640  137.0970  158.8760 O.2     1  UNL1       -0.2526
      2 C         141.9808  137.5415  157.9384 C.2     1  UNL1        0.3042
      3 N         142.0071  137.1079  156.5026 N.am    1  UNL1       -0.2850
      4 N         140.8713  138.4196  158.4365 N.am    1  UNL1       -0.2639
      5 C         139.6554  139.0449  157.8198 C.3     1  UNL1        0.1003
      6 C         139.3024  139.6613  159.1409 C.3     1  UNL1        0.0834
      7 C         140.5183  139.0360  159.7577 C.3     1  UNL1        0.1003
      8 H         141.2962  137.3997  155.8872 H       1  UNL1        0.1513
      9 C         143.1166  136.2298  156.0046 C.3     1  UNL1        0.1138
     10 C         143.0401  134.7439  156.1953 C.2     1  UNL1       -0.0202
     11 C         141.9091  133.9672  155.5893 C.2     1  UNL1       -0.0050
     12 C         141.8326  132.4813  155.7800 C.2     1  UNL1        0.0182
     13 C         142.8873  131.7722  156.5767 C.2     1  UNL1        0.0777
     14 N         143.0749  130.3269  156.9316 N.2     1  UNL1       -0.2442
     15 C         144.3219  130.2105  157.7570 C.2     1  UNL1        0.0985
     16 C         144.9051  131.5838  157.9122 C.2     1  UNL1        0.0182
     17 C         144.0184  132.5490  157.1827 C.2     1  UNL1        0.0011
     18 C         144.0948  134.0348  156.9920 C.3     1  UNL1        0.0515
     19 C         138.1930  140.5394  159.6390 C.3     1  UNL1        0.2087
     20 O         137.6274  140.3274  161.0121 O.3     1  UNL1       -0.4753
     21 C         137.8138  141.3744  162.0698 C.ar    1  UNL1        0.1385
     22 C         137.8553  140.9800  163.5164 C.ar    1  UNL1        0.0368
     23 C         138.0416  142.0270  164.5743 C.ar    1  UNL1        0.0070
     24 C         138.1864  143.4684  164.1855 C.ar    1  UNL1        0.0716
     25 C         138.1449  143.8629  162.7389 C.ar    1  UNL1        0.0070
     26 C         137.9586  142.8159  161.6811 C.ar    1  UNL1        0.0368
     27 C         138.3728  144.5155  165.2433 C.3     1  UNL1        0.4186
     28 F         138.5592  145.5626  166.3011 F       1  UNL1       -0.1659
     29 F         139.8612  144.3927  165.1027 F       1  UNL1       -0.1659
     30 F         136.8845  144.6384  165.3839 F       1  UNL1       -0.1659
@<TRIPOS>BOND
     1     1     2    2
     2     2     3   am
     3     3     9    1
     4     9    10    1
     5    10    11    2
     6    11    12    1
     7    12    13    2
     8    13    14    1
     9    14    15    2
    10    15    16    1
    11    16    17    2
    12    17    18    1
    13     2     4   am
    14     4     5    1
    15     5     6    1
    16     6    19    1
    17    19    20    1
    18    20    21    1
    19    21    22   ar
    20    22    23   ar
    21    23    24   ar
    22    24    27    1
    23    27    28    1
    24    27    29    1
    25    27    30    1
    26    24    25   ar
    27    25    26   ar
    28     6     7    1
    29    18    10    1
    30     7     4    1
    31    17    13    1
    32    26    21   ar
    33     3     8    1
@<TRIPOS>MOLECULE
*****
 30 33 0 0 0
SMALL
GASTEIGER

@<TRIPOS>ATOM
      1 O         142.1869  144.7373  160.9655 O.2     1  UNL1       -0.2526
      2 C         140.9817  145.3044  160.2756 C.2     1  UNL1        0.3042
      3 N         139.7536  145.6420  161.0679 N.am    1  UNL1       -0.2850
      4 N         141.0047  145.5339  158.7934 N.am    1  UNL1       -0.2639
      5 C         140.0275  146.0655  157.7872 C.3     1  UNL1        0.1003
      6 C         141.0372  145.8583  156.6974 C.3     1  UNL1        0.0834
      7 C         142.0144  145.3267  157.7036 C.3     1  UNL1        0.1003
      8 H         138.9626  146.0142  160.6151 H       1  UNL1        0.1513
      9 C         139.7307  145.4126  162.5501 C.3     1  UNL1        0.1138
     10 C         139.2326  144.1086  163.0995 C.2     1  UNL1       -0.0202
     11 C         138.0628  143.4226  162.4585 C.2     1  UNL1       -0.0050
     12 C         137.5647  142.1187  163.0079 C.2     1  UNL1        0.0182
     13 C         138.2365  141.5009  164.1983 C.2     1  UNL1        0.0777
     14 N         137.9703  140.2337  164.9555 N.2     1  UNL1       -0.2442
     15 C         138.9757  140.1366  166.0645 C.2     1  UNL1        0.0985
     16 C         139.8632  141.3438  165.9927 C.2     1  UNL1        0.0182
     17 C         139.4063  142.1870  164.8393 C.2     1  UNL1        0.0011
     18 C         139.9043  143.4908  164.2899 C.3     1  UNL1        0.0515
     19 C         141.0601  146.0878  155.2152 C.3     1  UNL1        0.2087
     20 O         139.8477  146.6352  154.5221 O.3     1  UNL1       -0.4753
     21 C         139.5110  148.0923  154.6387 C.ar    1  UNL1        0.1385
     22 C         139.9857  149.0577  153.5933 C.ar    1  UNL1        0.0368
     23 C         139.6490  150.5147  153.7099 C.ar    1  UNL1        0.0070
     24 C         138.8378  151.0064  154.8718 C.ar    1  UNL1        0.0716
     25 C         138.3632  150.0411  155.9172 C.ar    1  UNL1        0.0070
     26 C         138.6998  148.5840  155.8006 C.ar    1  UNL1        0.0368
     27 C         138.5011  152.4635  154.9884 C.3     1  UNL1        0.4186
     28 F         138.1644  153.9206  155.1051 F       1  UNL1       -0.1659
     29 F         138.8022  152.4155  156.4572 F       1  UNL1       -0.1659
     30 F         138.2000  152.5115  153.5198 F       1  UNL1       -0.1659
@<TRIPOS>BOND
     1     1     2    2
     2     2     3   am
     3     3     9    1
     4     9    10    1
     5    10    11    2
     6    11    12    1
     7    12    13    2
     8    13    14    1
     9    14    15    2
    10    15    16    1
    11    16    17    2
    12    17    18    1
    13     2     4   am
    14     4     5    1
    15     5     6    1
    16     6    19    1
    17    19    20    1
    18    20    21    1
    19    21    22   ar
    20    22    23   ar
    21    23    24   ar
    22    24    27    1
    23    27    28    1
    24    27    29    1
    25    27    30    1
    26    24    25   ar
    27    25    26   ar
    28     6     7    1
    29    18    10    1
    30     7     4    1
    31    17    13    1
    32    26    21   ar
    33     3     8    1
@<TRIPOS>MOLECULE
*****
 30 33 0 0 0
SMALL
GASTEIGER

@<TRIPOS>ATOM
      1 O         137.6486  140.8435  164.3262 O.2     1  UNL1       -0.2526
      2 C         138.4417  139.5872  164.1191 C.2     1  UNL1        0.3042
      3 N         138.7487  138.6935  165.2840 N.am    1  UNL1       -0.2850
      4 N         138.9278  139.2247  162.7470 N.am    1  UNL1       -0.2639
      5 C         139.7207  138.0907  162.1679 C.3     1  UNL1        0.1003
      6 C         139.6152  138.7122  160.8068 C.3     1  UNL1        0.0834
      7 C         138.8224  139.8462  161.3859 C.3     1  UNL1        0.1003
      8 H         139.2692  137.8690  165.1480 H       1  UNL1        0.1513
      9 C         138.2626  139.0560  166.6559 C.3     1  UNL1        0.1138
     10 C         139.1706  139.7782  167.6068 C.2     1  UNL1       -0.0202
     11 C         138.7837  139.9243  169.0485 C.2     1  UNL1       -0.0050
     12 C         139.6917  140.6465  169.9993 C.2     1  UNL1        0.0182
     13 C         140.9866  141.2226  169.5082 C.2     1  UNL1        0.0777
     14 N         142.0766  141.9807  170.2062 N.2     1  UNL1       -0.2442
     15 C         143.1372  142.3031  169.1957 C.2     1  UNL1        0.0985
     16 C         142.7027  141.7443  167.8732 C.2     1  UNL1        0.0182
     17 C         141.3735  141.0765  168.0664 C.2     1  UNL1        0.0011
     18 C         140.4655  140.3543  167.1156 C.3     1  UNL1        0.0515
     19 C         140.1013  138.3497  159.4348 C.3     1  UNL1        0.2087
     20 O         141.5374  138.5744  159.0642 O.3     1  UNL1       -0.4753
     21 C         142.4785  139.1967  160.0526 C.ar    1  UNL1        0.1385
     22 C         143.2529  138.3287  160.9997 C.ar    1  UNL1        0.0368
     23 C         144.1941  138.9508  161.9881 C.ar    1  UNL1        0.0070
     24 C         144.3609  140.4409  162.0295 C.ar    1  UNL1        0.0716
     25 C         143.5866  141.3089  161.0824 C.ar    1  UNL1        0.0070
     26 C         142.6454  140.6868  160.0939 C.ar    1  UNL1        0.0368
     27 C         145.3021  141.0632  163.0179 C.3     1  UNL1        0.4186
     28 F         146.2433  141.6854  164.0064 F       1  UNL1       -0.1659
     29 F         145.2639  139.8108  163.8427 F       1  UNL1       -0.1659
     30 F         145.3404  142.3155  162.1932 F       1  UNL1       -0.1659
@<TRIPOS>BOND
     1     1     2    2
     2     2     3   am
     3     3     9    1
     4     9    10    1
     5    10    11    2
     6    11    12    1
     7    12    13    2
     8    13    14    1
     9    14    15    2
    10    15    16    1
    11    16    17    2
    12    17    18    1
    13     2     4   am
    14     4     5    1
    15     5     6    1
    16     6    19    1
    17    19    20    1
    18    20    21    1
    19    21    22   ar
    20    22    23   ar
    21    23    24   ar
    22    24    27    1
    23    27    28    1
    24    27    29    1
    25    27    30    1
    26    24    25   ar
    27    25    26   ar
    28     6     7    1
    29    18    10    1
    30     7     4    1
    31    17    13    1
    32    26    21   ar
    33     3     8    1
@<TRIPOS>MOLECULE
*****
 30 33 0 0 0
SMALL
GASTEIGER

@<TRIPOS>ATOM
      1 O         142.2422  139.3798  157.2262 O.2     1  UNL1       -0.2526
      2 C         142.7038  138.3593  158.2240 C.2     1  UNL1        0.3042
      3 N         142.6719  136.9009  157.8747 N.am    1  UNL1       -0.2850
      4 N         143.1972  138.7973  159.5711 N.am    1  UNL1       -0.2639
      5 C         143.7216  138.0950  160.7884 C.3     1  UNL1        0.1003
      6 C         143.8950  139.4167  161.4762 C.3     1  UNL1        0.0834
      7 C         143.3707  140.1191  160.2589 C.3     1  UNL1        0.1003
      8 H         142.9749  136.2312  158.5296 H       1  UNL1        0.1513
      9 C         142.1785  136.4630  156.5276 C.3     1  UNL1        0.1138
     10 C         142.5522  135.1113  155.9950 C.2     1  UNL1       -0.0202
     11 C         141.8849  134.5807  154.7610 C.2     1  UNL1       -0.0050
     12 C         142.2586  133.2290  154.2285 C.2     1  UNL1        0.0182
     13 C         143.2996  132.4081  154.9302 C.2     1  UNL1        0.0777
     14 N         143.8701  131.0512  154.6417 N.2     1  UNL1       -0.2442
     15 C         144.8901  130.7433  155.6976 C.2     1  UNL1        0.0985
     16 C         144.9499  131.9099  156.6386 C.2     1  UNL1        0.0182
     17 C         143.9669  132.9388  156.1643 C.2     1  UNL1        0.0011
     18 C         143.5932  134.2904  156.6967 C.3     1  UNL1        0.0515
     19 C         144.3885  139.8547  162.8233 C.3     1  UNL1        0.2087
     20 O         144.1236  139.0060  164.0314 O.3     1  UNL1       -0.4753
     21 C         142.7407  138.9323  164.6076 C.ar    1  UNL1        0.1385
     22 C         141.7714  137.9053  164.1020 C.ar    1  UNL1        0.0368
     23 C         140.3884  137.8315  164.6781 C.ar    1  UNL1        0.0070
     24 C         139.9747  138.7847  165.7598 C.ar    1  UNL1        0.0716
     25 C         140.9440  139.8117  166.2655 C.ar    1  UNL1        0.0070
     26 C         142.3270  139.8855  165.6894 C.ar    1  UNL1        0.0368
     27 C         138.5918  138.7110  166.3360 C.3     1  UNL1        0.4186
     28 F         137.2087  138.6372  166.9122 F       1  UNL1       -0.1659
     29 F         138.3932  137.3727  165.6881 F       1  UNL1       -0.1659
     30 F         138.7903  140.0491  166.9840 F       1  UNL1       -0.1659
@<TRIPOS>BOND
     1     1     2    2
     2     2     3   am
     3     3     9    1
     4     9    10    1
     5    10    11    2
     6    11    12    1
     7    12    13    2
     8    13    14    1
     9    14    15    2
    10    15    16    1
    11    16    17    2
    12    17    18    1
    13     2     4   am
    14     4     5    1
    15     5     6    1
    16     6    19    1
    17    19    20    1
    18    20    21    1
    19    21    22   ar
    20    22    23   ar
    21    23    24   ar
    22    24    27    1
    23    27    28    1
    24    27    29    1
    25    27    30    1
    26    24    25   ar
    27    25    26   ar
    28     6     7    1
    29    18    10    1
    30     7     4    1
    31    17    13    1
    32    26    21   ar
    33     3     8    1
@<TRIPOS>MOLECULE
*****
 30 33 0 0 0
SMALL
GASTEIGER

@<TRIPOS>ATOM
      1 O         138.9338  138.9023  158.7102 O.2     1  UNL1       -0.2526
      2 C         140.0148  138.5205  159.6775 C.2     1  UNL1        0.3042
      3 N         141.4099  138.2745  159.1844 N.am    1  UNL1       -0.2850
      4 N         139.7006  138.3846  161.1380 N.am    1  UNL1       -0.2639
      5 C         140.4893  138.0322  162.3642 C.3     1  UNL1        0.1003
      6 C         139.2563  138.1924  163.2033 C.3     1  UNL1        0.0834
      7 C         138.4676  138.5448  161.9771 C.3     1  UNL1        0.1003
      8 H         142.1194  138.0239  159.8193 H       1  UNL1        0.1513
      9 C         141.7240  138.4104  157.7240 C.3     1  UNL1        0.1138
     10 C         141.7219  137.1982  156.8404 C.2     1  UNL1       -0.0202
     11 C         140.6375  137.0153  155.8205 C.2     1  UNL1       -0.0050
     12 C         140.6354  135.8031  154.9369 C.2     1  UNL1        0.0182
     13 C         141.7178  134.7737  155.0735 C.2     1  UNL1        0.0777
     14 N         141.9759  133.4864  154.3482 N.2     1  UNL1       -0.2442
     15 C         143.2199  132.8736  154.9199 C.2     1  UNL1        0.0985
     16 C         143.7307  133.7822  155.9986 C.2     1  UNL1        0.0182
     17 C         142.8023  134.9566  156.0936 C.2     1  UNL1        0.0011
     18 C         142.8043  136.1688  156.9770 C.3     1  UNL1        0.0515
     19 C         138.9422  138.0565  164.6637 C.3     1  UNL1        0.2087
     20 O         138.2044  139.1504  165.3772 O.3     1  UNL1       -0.4753
     21 C         138.9410  140.0703  166.3052 C.ar    1  UNL1        0.1385
     22 C         139.5129  141.3570  165.7881 C.ar    1  UNL1        0.0368
     23 C         140.2495  142.2769  166.7160 C.ar    1  UNL1        0.0070
     24 C         140.4143  141.9102  168.1611 C.ar    1  UNL1        0.0716
     25 C         139.8425  140.6234  168.6783 C.ar    1  UNL1        0.0070
     26 C         139.1059  139.7035  167.7503 C.ar    1  UNL1        0.0368
     27 C         141.1509  142.8300  169.0891 C.3     1  UNL1        0.4186
     28 F         141.8876  143.7499  170.0171 F       1  UNL1       -0.1659
     29 F         142.4378  142.5042  168.3906 F       1  UNL1       -0.1659
     30 F         139.8641  143.1559  169.7876 F       1  UNL1       -0.1659
@<TRIPOS>BOND
     1     1     2    2
     2     2     3   am
     3     3     9    1
     4     9    10    1
     5    10    11    2
     6    11    12    1
     7    12    13    2
     8    13    14    1
     9    14    15    2
    10    15    16    1
    11    16    17    2
    12    17    18    1
    13     2     4   am
    14     4     5    1
    15     5     6    1
    16     6    19    1
    17    19    20    1
    18    20    21    1
    19    21    22   ar
    20    22    23   ar
    21    23    24   ar
    22    24    27    1
    23    27    28    1
    24    27    29    1
    25    27    30    1
    26    24    25   ar
    27    25    26   ar
    28     6     7    1
    29    18    10    1
    30     7     4    1
    31    17    13    1
    32    26    21   ar
    33     3     8    1
@<TRIPOS>MOLECULE
*****
 30 33 0 0 0
SMALL
GASTEIGER

@<TRIPOS>ATOM
      1 O         142.5618  139.8840  157.1946 O.2     1  UNL1       -0.2526
      2 C         143.0295  138.9541  158.2748 C.2     1  UNL1        0.3042
      3 N         143.0162  137.4718  158.0459 N.am    1  UNL1       -0.2850
      4 N         143.5105  139.5067  159.5838 N.am    1  UNL1       -0.2639
      5 C         144.0361  138.9126  160.8569 C.3     1  UNL1        0.1003
      6 C         144.1906  140.2881  161.4349 C.3     1  UNL1        0.0834
      7 C         143.6650  140.8822  160.1618 C.3     1  UNL1        0.1003
      8 H         143.3232  136.8615  158.7548 H       1  UNL1        0.1513
      9 C         142.5353  136.9192  156.7370 C.3     1  UNL1        0.1138
     10 C         142.5052  135.4360  156.5147 C.2     1  UNL1       -0.0202
     11 C         141.4973  134.8383  155.5784 C.2     1  UNL1       -0.0050
     12 C         141.4672  133.3551  155.3561 C.2     1  UNL1        0.0182
     13 C         142.4451  132.4698  156.0702 C.2     1  UNL1        0.0777
     14 N         142.6540  130.9845  156.0510 N.2     1  UNL1       -0.2442
     15 C         143.7911  130.6644  156.9754 C.2     1  UNL1        0.0985
     16 C         144.2849  131.9518  157.5661 C.2     1  UNL1        0.0182
     17 C         143.4530  133.0676  157.0066 C.2     1  UNL1        0.0011
     18 C         143.4830  134.5507  157.2288 C.3     1  UNL1        0.0515
     19 C         144.6716  140.8407  162.7438 C.3     1  UNL1        0.2087
     20 O         144.5652  142.3109  163.0219 O.3     1  UNL1       -0.4753
     21 C         143.2787  142.8857  163.5360 C.ar    1  UNL1        0.1385
     22 C         142.3739  142.0510  164.3931 C.ar    1  UNL1        0.0368
     23 C         141.0873  142.6258  164.9073 C.ar    1  UNL1        0.0070
     24 C         140.7056  144.0353  164.5644 C.ar    1  UNL1        0.0716
     25 C         141.6104  144.8700  163.7073 C.ar    1  UNL1        0.0070
     26 C         142.8969  144.2952  163.1931 C.ar    1  UNL1        0.0368
     27 C         139.4191  144.6101  165.0785 C.3     1  UNL1        0.4186
     28 F         138.1325  145.1850  165.5927 F       1  UNL1       -0.1659
     29 F         139.6067  143.8735  166.3717 F       1  UNL1       -0.1659
     30 F         139.2314  145.3468  163.7854 F       1  UNL1       -0.1659
@<TRIPOS>BOND
     1     1     2    2
     2     2     3   am
     3     3     9    1
     4     9    10    1
     5    10    11    2
     6    11    12    1
     7    12    13    2
     8    13    14    1
     9    14    15    2
    10    15    16    1
    11    16    17    2
    12    17    18    1
    13     2     4   am
    14     4     5    1
    15     5     6    1
    16     6    19    1
    17    19    20    1
    18    20    21    1
    19    21    22   ar
    20    22    23   ar
    21    23    24   ar
    22    24    27    1
    23    27    28    1
    24    27    29    1
    25    27    30    1
    26    24    25   ar
    27    25    26   ar
    28     6     7    1
    29    18    10    1
    30     7     4    1
    31    17    13    1
    32    26    21   ar
    33     3     8    1
