@<TRIPOS>MOLECULE
*****
 28 30 0 0 0
SMALL
GASTEIGER

@<TRIPOS>ATOM
      1 C         141.8969  142.8926  164.9731 C.ar    1  UNL1        0.1525
      2 C         141.0566  142.1303  163.9919 C.ar    1  UNL1        0.1331
      3 N         141.1756  142.4133  162.5236 N.ar    1  UNL1       -0.2381
      4 C         142.1348  143.4585  162.0366 C.ar    1  UNL1        0.1133
      5 C         142.9751  144.2208  163.0178 C.ar    1  UNL1        0.1446
      6 N         143.9344  145.2660  162.5307 N.pl3   1  UNL1       -0.3414
      7 N         142.8562  143.9378  164.4860 N.ar    1  UNL1       -0.2133
      8 H         144.0125  145.4518  161.5671 H       1  UNL1        0.1438
      9 H         144.4860  145.7664  163.1747 H       1  UNL1        0.1438
     10 C         142.2538  143.7414  160.5683 C.ar    1  UNL1        0.0318
     11 C         143.2716  143.0107  159.7438 C.ar    1  UNL1        0.0025
     12 C         143.3906  143.2937  158.2755 C.ar    1  UNL1        0.0010
     13 C         142.4917  144.3073  157.6318 C.ar    1  UNL1        0.0122
     14 C         141.4738  145.0380  158.4564 C.ar    1  UNL1        0.0682
     15 CL        140.5748  146.0518  157.8127 Cl      1  UNL1       -0.0814
     16 C         141.3549  144.7551  159.9246 C.ar    1  UNL1        0.0697
     17 CL        140.3369  145.4859  160.7492 Cl      1  UNL1       -0.0813
     18 C         140.5009  141.9971  170.4586 C.3     1  UNL1        0.0015
     19 C         141.5400  142.0437  169.3779 C.3     1  UNL1        0.0176
     20 C         142.8768  141.9560  168.7031 C.3     1  UNL1        0.0228
     21 C         142.9957  142.2390  167.2348 C.3     1  UNL1        0.0922
     22 N         141.7779  142.6096  166.4414 N.pl3   1  UNL1       -0.2920
     23 C         140.4412  142.6974  167.1162 C.3     1  UNL1        0.0922
     24 C         140.3223  142.4144  168.5844 C.3     1  UNL1        0.0228
     25 C         142.3970  141.6569  170.5467 C.3     1  UNL1        0.0652
     26 N         142.1413  142.2598  171.8962 N.3     1  UNL1       -0.3211
     27 H         142.3377  143.2602  171.8643 H       1  UNL1        0.1189
     28 H         142.7468  141.8163  172.5869 H       1  UNL1        0.1189
@<TRIPOS>BOND
     1    18    19    1
     2    19    25    1
     3    25    26    1
     4    19    20    1
     5    20    21    1
     6    21    22    1
     7    22     1    1
     8     1     2   ar
     9     2     3   ar
    10     3     4   ar
    11     4    10    1
    12    10    11   ar
    13    11    12   ar
    14    12    13   ar
    15    13    14   ar
    16    14    15    1
    17    14    16   ar
    18    16    17    1
    19     4     5   ar
    20     5     6    1
    21     5     7   ar
    22    22    23    1
    23    23    24    1
    24    24    19    1
    25     7     1   ar
    26    16    10   ar
    27    26    27    1
    28    26    28    1
    29     6     8    1
    30     6     9    1
@<TRIPOS>MOLECULE
*****
 28 30 0 0 0
SMALL
GASTEIGER

@<TRIPOS>ATOM
      1 C         139.8038  142.1136  164.9749 C.ar    1  UNL1        0.1525
      2 C         140.7453  141.4745  163.9977 C.ar    1  UNL1        0.1331
      3 N         140.6412  141.7957  162.5362 N.ar    1  UNL1       -0.2381
      4 C         139.5955  142.7559  162.0519 C.ar    1  UNL1        0.1133
      5 C         138.6540  143.3949  163.0291 C.ar    1  UNL1        0.1446
      6 N         137.6082  144.3552  162.5449 N.pl3   1  UNL1       -0.3414
      7 N         138.7581  143.0738  164.4906 N.ar    1  UNL1       -0.2133
      8 H         137.5399  144.5659  161.5856 H       1  UNL1        0.1438
      9 H         136.9902  144.7746  163.1863 H       1  UNL1        0.1438
     10 C         139.4914  143.0770  160.5904 C.ar    1  UNL1        0.0318
     11 C         138.6200  142.2424  159.6993 C.ar    1  UNL1        0.0025
     12 C         138.5159  142.5636  158.2378 C.ar    1  UNL1        0.0010
     13 C         139.2832  143.7193  157.6673 C.ar    1  UNL1        0.0122
     14 C         140.1546  144.5539  158.5584 C.ar    1  UNL1        0.0682
     15 CL        140.9220  145.7097  157.9880 Cl      1  UNL1       -0.0814
     16 C         140.2587  144.2328  160.0199 C.ar    1  UNL1        0.0697
     17 CL        141.1302  145.0674  160.9110 Cl      1  UNL1       -0.0813
     18 C         139.8436  140.0225  170.3104 C.3     1  UNL1        0.0015
     19 C         140.1161  141.1501  169.3595 C.3     1  UNL1        0.0176
     20 C         140.5386  142.4984  168.8559 C.3     1  UNL1        0.0228
     21 C         140.4345  142.8195  167.3944 C.3     1  UNL1        0.0922
     22 N         139.9079  141.7924  166.4364 N.pl3   1  UNL1       -0.2920
     23 C         139.4853  140.4442  166.9400 C.3     1  UNL1        0.0922
     24 C         139.5895  140.1230  168.4015 C.3     1  UNL1        0.0228
     25 C         140.5481  141.7857  170.6477 C.3     1  UNL1        0.0652
     26 N         140.7392  140.9420  171.8731 N.3     1  UNL1       -0.3211
     27 H         139.8405  140.5581  172.1651 H       1  UNL1        0.1189
     28 H         141.1242  141.5151  172.6239 H       1  UNL1        0.1189
@<TRIPOS>BOND
     1    18    19    1
     2    19    25    1
     3    25    26    1
     4    19    20    1
     5    20    21    1
     6    21    22    1
     7    22     1    1
     8     1     2   ar
     9     2     3   ar
    10     3     4   ar
    11     4    10    1
    12    10    11   ar
    13    11    12   ar
    14    12    13   ar
    15    13    14   ar
    16    14    15    1
    17    14    16   ar
    18    16    17    1
    19     4     5   ar
    20     5     6    1
    21     5     7   ar
    22    22    23    1
    23    23    24    1
    24    24    19    1
    25     7     1   ar
    26    16    10   ar
    27    26    27    1
    28    26    28    1
    29     6     8    1
    30     6     9    1
@<TRIPOS>MOLECULE
*****
 28 30 0 0 0
SMALL
GASTEIGER

@<TRIPOS>ATOM
      1 C         141.8601  142.8455  165.0214 C.ar    1  UNL1        0.1525
      2 C         140.9631  142.1683  164.0281 C.ar    1  UNL1        0.1331
      3 N         141.0546  142.5204  162.5729 N.ar    1  UNL1       -0.2381
      4 C         142.0430  143.5498  162.1110 C.ar    1  UNL1        0.1133
      5 C         142.9399  144.2271  163.1043 C.ar    1  UNL1        0.1446
      6 N         143.9284  145.2565  162.6425 N.pl3   1  UNL1       -0.3414
      7 N         142.8485  143.8749  164.5595 N.ar    1  UNL1       -0.2133
      8 H         143.9884  145.4876  161.6874 H       1  UNL1        0.1438
      9 H         144.5171  145.7010  163.2944 H       1  UNL1        0.1438
     10 C         142.1344  143.9019  160.6558 C.ar    1  UNL1        0.0318
     11 C         141.2888  145.0077  160.0971 C.ar    1  UNL1        0.0025
     12 C         141.3803  145.3598  158.6419 C.ar    1  UNL1        0.0010
     13 C         142.3173  144.6061  157.7453 C.ar    1  UNL1        0.0122
     14 C         143.1629  143.5004  158.3040 C.ar    1  UNL1        0.0682
     15 CL        144.1001  142.7466  157.4074 Cl      1  UNL1       -0.0814
     16 C         143.0715  143.1482  159.7592 C.ar    1  UNL1        0.0697
     17 CL        143.9172  142.0424  160.3179 Cl      1  UNL1       -0.0813
     18 C         142.4774  141.4707  170.5505 C.3     1  UNL1        0.0015
     19 C         141.5857  141.7892  169.3871 C.3     1  UNL1        0.0176
     20 C         140.3358  142.0309  168.5939 C.3     1  UNL1        0.0228
     21 C         140.4272  142.3830  167.1387 C.3     1  UNL1        0.0922
     22 N         141.7686  142.4934  166.4766 N.pl3   1  UNL1       -0.2920
     23 C         143.0186  142.2517  167.2698 C.3     1  UNL1        0.0922
     24 C         142.9271  141.8996  168.7250 C.3     1  UNL1        0.0228
     25 C         140.5539  141.5682  170.4532 C.3     1  UNL1        0.0652
     26 N         140.8338  141.9870  171.8661 N.3     1  UNL1       -0.3211
     27 H         141.5938  141.4214  172.2442 H       1  UNL1        0.1189
     28 H         139.9962  141.8534  172.4326 H       1  UNL1        0.1189
@<TRIPOS>BOND
     1    18    19    1
     2    19    25    1
     3    25    26    1
     4    19    20    1
     5    20    21    1
     6    21    22    1
     7    22     1    1
     8     1     2   ar
     9     2     3   ar
    10     3     4   ar
    11     4    10    1
    12    10    11   ar
    13    11    12   ar
    14    12    13   ar
    15    13    14   ar
    16    14    15    1
    17    14    16   ar
    18    16    17    1
    19     4     5   ar
    20     5     6    1
    21     5     7   ar
    22    22    23    1
    23    23    24    1
    24    24    19    1
    25     7     1   ar
    26    16    10   ar
    27    26    27    1
    28    26    28    1
    29     6     8    1
    30     6     9    1
@<TRIPOS>MOLECULE
*****
 28 30 0 0 0
SMALL
GASTEIGER

@<TRIPOS>ATOM
      1 C         139.7827  142.0085  165.0109 C.ar    1  UNL1        0.1525
      2 C         140.6922  141.3061  164.0468 C.ar    1  UNL1        0.1331
      3 N         140.5674  141.5639  162.5744 N.ar    1  UNL1       -0.2381
      4 C         139.5331  142.5240  162.0661 C.ar    1  UNL1        0.1133
      5 C         138.6237  143.2263  163.0302 C.ar    1  UNL1        0.1446
      6 N         137.5893  144.1865  162.5219 N.pl3   1  UNL1       -0.3414
      7 N         138.7485  142.9685  164.5026 N.ar    1  UNL1       -0.2133
      8 H         137.5074  144.3557  161.5555 H       1  UNL1        0.1438
      9 H         136.9924  144.6474  163.1547 H       1  UNL1        0.1438
     10 C         139.4083  142.7817  160.5937 C.ar    1  UNL1        0.0318
     11 C         140.1031  143.9593  159.9769 C.ar    1  UNL1        0.0025
     12 C         139.9783  144.2171  158.5045 C.ar    1  UNL1        0.0010
     13 C         139.1587  143.2973  157.6489 C.ar    1  UNL1        0.0122
     14 C         138.4639  142.1197  158.2657 C.ar    1  UNL1        0.0682
     15 CL        137.6443  141.1998  157.4101 Cl      1  UNL1       -0.0814
     16 C         138.5887  141.8619  159.7381 C.ar    1  UNL1        0.0697
     17 CL        137.8939  140.6842  160.3549 Cl      1  UNL1       -0.0813
     18 C         139.9683  140.1264  170.4207 C.3     1  UNL1        0.0015
     19 C         140.1572  141.2352  169.4281 C.3     1  UNL1        0.0176
     20 C         140.4780  142.5917  168.8744 C.3     1  UNL1        0.0228
     21 C         140.3532  142.8495  167.4020 C.3     1  UNL1        0.0922
     22 N         139.9075  141.7507  166.4833 N.pl3   1  UNL1       -0.2920
     23 C         139.5867  140.3941  167.0371 C.3     1  UNL1        0.0922
     24 C         139.7115  140.1363  168.5095 C.3     1  UNL1        0.0228
     25 C         140.5372  141.9490  170.6915 C.3     1  UNL1        0.0652
     26 N         139.6244  142.9902  171.2682 N.3     1  UNL1       -0.3211
     27 H         139.5713  143.7858  170.6321 H       1  UNL1        0.1189
     28 H         139.9880  143.2994  172.1697 H       1  UNL1        0.1189
@<TRIPOS>BOND
     1    18    19    1
     2    19    25    1
     3    25    26    1
     4    19    20    1
     5    20    21    1
     6    21    22    1
     7    22     1    1
     8     1     2   ar
     9     2     3   ar
    10     3     4   ar
    11     4    10    1
    12    10    11   ar
    13    11    12   ar
    14    12    13   ar
    15    13    14   ar
    16    14    15    1
    17    14    16   ar
    18    16    17    1
    19     4     5   ar
    20     5     6    1
    21     5     7   ar
    22    22    23    1
    23    23    24    1
    24    24    19    1
    25     7     1   ar
    26    16    10   ar
    27    26    27    1
    28    26    28    1
    29     6     8    1
    30     6     9    1
@<TRIPOS>MOLECULE
*****
 28 30 0 0 0
SMALL
GASTEIGER

@<TRIPOS>ATOM
      1 C         140.7361  139.6661  164.9930 C.ar    1  UNL1        0.1525
      2 C         141.4666  140.5813  164.0556 C.ar    1  UNL1        0.1331
      3 N         141.2205  140.4941  162.5785 N.ar    1  UNL1       -0.2381
      4 C         140.2439  139.4916  162.0388 C.ar    1  UNL1        0.1133
      5 C         139.5134  138.5764  162.9762 C.ar    1  UNL1        0.1446
      6 N         138.5368  137.5739  162.4365 N.pl3   1  UNL1       -0.3414
      7 N         139.7595  138.6637  164.4533 N.ar    1  UNL1       -0.2133
      8 H         138.3752  137.5166  161.4670 H       1  UNL1        0.1438
      9 H         138.0573  136.9732  163.0517 H       1  UNL1        0.1438
     10 C         139.9978  139.4044  160.5617 C.ar    1  UNL1        0.0318
     11 C         140.8609  138.5232  159.7083 C.ar    1  UNL1        0.0025
     12 C         140.6148  138.4359  158.2312 C.ar    1  UNL1        0.0010
     13 C         139.5056  139.2299  157.6075 C.ar    1  UNL1        0.0122
     14 C         138.6424  140.1111  158.4609 C.ar    1  UNL1        0.0682
     15 CL        137.5330  140.9052  157.8372 Cl      1  UNL1       -0.0814
     16 C         138.8885  140.1984  159.9380 C.ar    1  UNL1        0.0697
     17 CL        138.0253  141.0797  160.7914 Cl      1  UNL1       -0.0813
     18 C         142.5797  139.7291  170.4188 C.3     1  UNL1        0.0015
     19 C         141.4745  139.9279  169.4243 C.3     1  UNL1        0.0176
     20 C         140.1164  140.2422  168.8703 C.3     1  UNL1        0.0228
     21 C         139.8703  140.1549  167.3932 C.3     1  UNL1        0.0922
     22 N         140.9822  139.7534  166.4701 N.pl3   1  UNL1       -0.2920
     23 C         142.3403  139.4391  167.0240 C.3     1  UNL1        0.0922
     24 C         142.5864  139.5263  168.5011 C.3     1  UNL1        0.0228
     25 C         140.7463  140.2604  170.6929 C.3     1  UNL1        0.0652
     26 N         139.6303  139.3790  171.1701 N.3     1  UNL1       -0.3211
     27 H         138.8539  139.4261  170.5103 H       1  UNL1        0.1189
     28 H         139.3163  139.6948  172.0877 H       1  UNL1        0.1189
@<TRIPOS>BOND
     1    18    19    1
     2    19    25    1
     3    25    26    1
     4    19    20    1
     5    20    21    1
     6    21    22    1
     7    22     1    1
     8     1     2   ar
     9     2     3   ar
    10     3     4   ar
    11     4    10    1
    12    10    11   ar
    13    11    12   ar
    14    12    13   ar
    15    13    14   ar
    16    14    15    1
    17    14    16   ar
    18    16    17    1
    19     4     5   ar
    20     5     6    1
    21     5     7   ar
    22    22    23    1
    23    23    24    1
    24    24    19    1
    25     7     1   ar
    26    16    10   ar
    27    26    27    1
    28    26    28    1
    29     6     8    1
    30     6     9    1
@<TRIPOS>MOLECULE
*****
 28 30 0 0 0
SMALL
GASTEIGER

@<TRIPOS>ATOM
      1 C         142.6617  140.4294  164.6036 C.ar    1  UNL1        0.1525
      2 C         141.7031  141.2313  163.7741 C.ar    1  UNL1        0.1331
      3 N         141.6053  140.9894  162.2970 N.ar    1  UNL1       -0.2381
      4 C         142.4660  139.9456  161.6493 C.ar    1  UNL1        0.1133
      5 C         143.4246  139.1437  162.4787 C.ar    1  UNL1        0.1446
      6 N         144.2855  138.0999  161.8310 N.pl3   1  UNL1       -0.3414
      7 N         143.5224  139.3856  163.9559 N.ar    1  UNL1       -0.2133
      8 H         144.2213  137.9411  160.8616 H       1  UNL1        0.1438
      9 H         144.9146  137.5736  162.3755 H       1  UNL1        0.1438
     10 C         142.3682  139.7038  160.1722 C.ar    1  UNL1        0.0318
     11 C         143.4087  140.2661  159.2496 C.ar    1  UNL1        0.0025
     12 C         143.3109  140.0242  157.7724 C.ar    1  UNL1        0.0010
     13 C         142.1726  139.2200  157.2179 C.ar    1  UNL1        0.0122
     14 C         141.1322  138.6577  158.1405 C.ar    1  UNL1        0.0682
     15 CL        139.9938  137.8535  157.5859 Cl      1  UNL1       -0.0814
     16 C         141.2300  138.8996  159.6176 C.ar    1  UNL1        0.0697
     17 CL        140.1894  138.3372  160.5402 Cl      1  UNL1       -0.0813
     18 C         142.8289  140.4119  170.3319 C.3     1  UNL1        0.0015
     19 C         142.9551  141.1550  169.0350 C.3     1  UNL1        0.0176
     20 C         143.1771  142.2848  168.0737 C.3     1  UNL1        0.0228
     21 C         143.0793  142.0429  166.5965 C.3     1  UNL1        0.0922
     22 N         142.7595  140.6712  166.0807 N.pl3   1  UNL1       -0.2920
     23 C         142.5374  139.5414  167.0420 C.3     1  UNL1        0.0922
     24 C         142.6353  139.7833  168.5192 C.3     1  UNL1        0.0228
     25 C         143.2311  142.2687  170.0012 C.3     1  UNL1        0.0652
     26 N         144.6274  142.7923  170.1631 N.3     1  UNL1       -0.3211
     27 H         145.2184  142.0656  170.5668 H       1  UNL1        0.1189
     28 H         144.6167  143.6040  170.7807 H       1  UNL1        0.1189
@<TRIPOS>BOND
     1    18    19    1
     2    19    25    1
     3    25    26    1
     4    19    20    1
     5    20    21    1
     6    21    22    1
     7    22     1    1
     8     1     2   ar
     9     2     3   ar
    10     3     4   ar
    11     4    10    1
    12    10    11   ar
    13    11    12   ar
    14    12    13   ar
    15    13    14   ar
    16    14    15    1
    17    14    16   ar
    18    16    17    1
    19     4     5   ar
    20     5     6    1
    21     5     7   ar
    22    22    23    1
    23    23    24    1
    24    24    19    1
    25     7     1   ar
    26    16    10   ar
    27    26    27    1
    28    26    28    1
    29     6     8    1
    30     6     9    1
@<TRIPOS>MOLECULE
*****
 28 30 0 0 0
SMALL
GASTEIGER

@<TRIPOS>ATOM
      1 C         142.4091  140.0714  165.0926 C.ar    1  UNL1        0.1525
      2 C         142.8027  141.0083  163.9893 C.ar    1  UNL1        0.1331
      3 N         142.6304  140.5955  162.5576 N.ar    1  UNL1       -0.2381
      4 C         142.0645  139.2457  162.2291 C.ar    1  UNL1        0.1133
      5 C         141.6709  138.3088  163.3324 C.ar    1  UNL1        0.1446
      6 N         141.1049  136.9590  163.0039 N.pl3   1  UNL1       -0.3414
      7 N         141.8432  138.7217  164.7641 N.ar    1  UNL1       -0.2133
      8 H         140.9918  136.6881  162.0643 H       1  UNL1        0.1438
      9 H         140.8466  136.3441  163.7281 H       1  UNL1        0.1438
     10 C         141.8921  138.8329  160.7974 C.ar    1  UNL1        0.0318
     11 C         142.9669  138.0443  160.1096 C.ar    1  UNL1        0.0025
     12 C         142.7946  137.6315  158.6779 C.ar    1  UNL1        0.0010
     13 C         141.5475  138.0072  157.9339 C.ar    1  UNL1        0.0122
     14 C         140.4728  138.7958  158.6216 C.ar    1  UNL1        0.0682
     15 CL        139.2256  139.1716  157.8776 Cl      1  UNL1       -0.0814
     16 C         140.6451  139.2087  160.0534 C.ar    1  UNL1        0.0697
     17 CL        139.5703  139.9973  160.7411 Cl      1  UNL1       -0.0813
     18 C         143.2361  142.5308  170.2023 C.3     1  UNL1        0.0015
     19 C         142.9261  141.3099  169.3878 C.3     1  UNL1        0.0176
     20 C         142.6000  139.8848  169.0522 C.3     1  UNL1        0.0228
     21 C         142.4277  139.4719  167.6205 C.3     1  UNL1        0.0922
     22 N         142.5814  140.4842  166.5243 N.pl3   1  UNL1       -0.2920
     23 C         142.9075  141.9094  166.8599 C.3     1  UNL1        0.0922
     24 C         143.0798  142.3222  168.2916 C.3     1  UNL1        0.0228
     25 C         142.8800  140.7216  170.7669 C.3     1  UNL1        0.0652
     26 N         143.6979  139.5068  171.0917 N.3     1  UNL1       -0.3211
     27 H         143.3528  138.7111  170.5550 H       1  UNL1        0.1189
     28 H         143.6230  139.3030  172.0883 H       1  UNL1        0.1189
@<TRIPOS>BOND
     1    18    19    1
     2    19    25    1
     3    25    26    1
     4    19    20    1
     5    20    21    1
     6    21    22    1
     7    22     1    1
     8     1     2   ar
     9     2     3   ar
    10     3     4   ar
    11     4    10    1
    12    10    11   ar
    13    11    12   ar
    14    12    13   ar
    15    13    14   ar
    16    14    15    1
    17    14    16   ar
    18    16    17    1
    19     4     5   ar
    20     5     6    1
    21     5     7   ar
    22    22    23    1
    23    23    24    1
    24    24    19    1
    25     7     1   ar
    26    16    10   ar
    27    26    27    1
    28    26    28    1
    29     6     8    1
    30     6     9    1
@<TRIPOS>MOLECULE
*****
 28 30 0 0 0
SMALL
GASTEIGER

@<TRIPOS>ATOM
      1 C         140.1975  140.5313  164.6733 C.ar    1  UNL1        0.1525
      2 C         140.9504  141.3844  163.6959 C.ar    1  UNL1        0.1331
      3 N         141.0010  140.9987  162.2472 N.ar    1  UNL1       -0.2381
      4 C         140.2987  139.7599  161.7760 C.ar    1  UNL1        0.1133
      5 C         139.5458  138.9068  162.7534 C.ar    1  UNL1        0.1446
      6 N         138.8435  137.6679  162.2822 N.pl3   1  UNL1       -0.3414
      7 N         139.4953  139.2925  164.2021 N.ar    1  UNL1       -0.2133
      8 H         138.8766  137.4148  161.3313 H       1  UNL1        0.1438
      9 H         138.3493  137.1080  162.9237 H       1  UNL1        0.1438
     10 C         140.3492  139.3742  160.3273 C.ar    1  UNL1        0.0318
     11 C         139.2651  139.8238  159.3932 C.ar    1  UNL1        0.0025
     12 C         139.3157  139.4381  157.9445 C.ar    1  UNL1        0.0010
     13 C         140.4503  138.6028  157.4299 C.ar    1  UNL1        0.0122
     14 C         141.5344  138.1532  158.3640 C.ar    1  UNL1        0.0682
     15 CL        142.6692  137.3179  157.8495 Cl      1  UNL1       -0.0814
     16 C         141.4839  138.5389  159.8127 C.ar    1  UNL1        0.0697
     17 CL        142.5681  138.0893  160.7468 Cl      1  UNL1       -0.0813
     18 C         139.6569  141.1128  170.3489 C.3     1  UNL1        0.0015
     19 C         140.0459  141.6884  169.0194 C.3     1  UNL1        0.0176
     20 C         140.5430  142.6691  167.9991 C.3     1  UNL1        0.0228
     21 C         140.5935  142.2834  166.5504 C.3     1  UNL1        0.0922
     22 N         140.1470  140.9170  166.1220 N.pl3   1  UNL1       -0.2920
     23 C         139.6499  139.9363  167.1423 C.3     1  UNL1        0.0922
     24 C         139.5993  140.3220  168.5910 C.3     1  UNL1        0.0228
     25 C         140.3574  142.8549  169.9095 C.3     1  UNL1        0.0652
     26 N         139.4324  143.2060  171.0370 N.3     1  UNL1       -0.3211
     27 H         138.5368  143.5143  170.6586 H       1  UNL1        0.1189
     28 H         139.8432  143.9562  171.5927 H       1  UNL1        0.1189
@<TRIPOS>BOND
     1    18    19    1
     2    19    25    1
     3    25    26    1
     4    19    20    1
     5    20    21    1
     6    21    22    1
     7    22     1    1
     8     1     2   ar
     9     2     3   ar
    10     3     4   ar
    11     4    10    1
    12    10    11   ar
    13    11    12   ar
    14    12    13   ar
    15    13    14   ar
    16    14    15    1
    17    14    16   ar
    18    16    17    1
    19     4     5   ar
    20     5     6    1
    21     5     7   ar
    22    22    23    1
    23    23    24    1
    24    24    19    1
    25     7     1   ar
    26    16    10   ar
    27    26    27    1
    28    26    28    1
    29     6     8    1
    30     6     9    1
@<TRIPOS>MOLECULE
*****
 28 30 0 0 0
SMALL
GASTEIGER

@<TRIPOS>ATOM
      1 C         141.8483  141.0221  165.3760 C.ar    1  UNL1        0.1525
      2 C         140.9408  141.5375  164.2987 C.ar    1  UNL1        0.1331
      3 N         141.3260  141.3851  162.8571 N.ar    1  UNL1       -0.2381
      4 C         142.6187  140.7173  162.4927 C.ar    1  UNL1        0.1133
      5 C         143.5263  140.2020  163.5700 C.ar    1  UNL1        0.1446
      6 N         144.8191  139.5342  163.2057 N.pl3   1  UNL1       -0.3414
      7 N         143.1411  140.3543  165.0117 N.ar    1  UNL1       -0.2133
      8 H         145.0720  139.4341  162.2595 H       1  UNL1        0.1438
      9 H         145.4148  139.1959  163.9128 H       1  UNL1        0.1438
     10 C         143.0039  140.5650  161.0510 C.ar    1  UNL1        0.0318
     11 C         142.6126  139.3289  160.2968 C.ar    1  UNL1        0.0025
     12 C         142.9978  139.1766  158.8551 C.ar    1  UNL1        0.0010
     13 C         143.7744  140.2603  158.1677 C.ar    1  UNL1        0.0122
     14 C         144.1657  141.4963  158.9220 C.ar    1  UNL1        0.0682
     15 CL        144.9422  142.5801  158.2346 Cl      1  UNL1       -0.0814
     16 C         143.7805  141.6487  160.3636 C.ar    1  UNL1        0.0697
     17 CL        144.1718  142.8848  161.1179 Cl      1  UNL1       -0.0813
     18 C         140.0892  142.4921  170.6283 C.3     1  UNL1        0.0015
     19 C         140.6927  141.4792  169.7010 C.3     1  UNL1        0.0176
     20 C         141.3007  140.1955  169.2188 C.3     1  UNL1        0.0228
     21 C         141.6859  140.0432  167.7771 C.3     1  UNL1        0.0922
     22 N         141.4631  141.1744  166.8177 N.pl3   1  UNL1       -0.2920
     23 C         140.8551  142.4581  167.2999 C.3     1  UNL1        0.0922
     24 C         140.4699  142.6104  168.7416 C.3     1  UNL1        0.0228
     25 C         140.7059  140.6996  170.9825 C.3     1  UNL1        0.0652
     26 N         139.7613  139.5497  171.1707 N.3     1  UNL1       -0.3211
     27 H         138.8026  139.8973  171.1922 H       1  UNL1        0.1189
     28 H         139.9716  139.0774  172.0499 H       1  UNL1        0.1189
@<TRIPOS>BOND
     1    18    19    1
     2    19    25    1
     3    25    26    1
     4    19    20    1
     5    20    21    1
     6    21    22    1
     7    22     1    1
     8     1     2   ar
     9     2     3   ar
    10     3     4   ar
    11     4    10    1
    12    10    11   ar
    13    11    12   ar
    14    12    13   ar
    15    13    14   ar
    16    14    15    1
    17    14    16   ar
    18    16    17    1
    19     4     5   ar
    20     5     6    1
    21     5     7   ar
    22    22    23    1
    23    23    24    1
    24    24    19    1
    25     7     1   ar
    26    16    10   ar
    27    26    27    1
    28    26    28    1
    29     6     8    1
    30     6     9    1
