@<TRIPOS>MOLECULE
*****
 26 28 0 0 0
SMALL
GASTEIGER

@<TRIPOS>ATOM
      1 C         140.4335  143.3156  163.9584 C.2     1  UNL1        0.0596
      2 C         141.1116  142.9895  162.6606 C.2     1  UNL1        0.0324
      3 C         140.8698  143.8451  161.4525 C.2     1  UNL1        0.0889
      4 N         141.3937  143.7707  160.0489 N.2     1  UNL1       -0.2236
      5 C         140.7976  144.9063  159.2710 C.2     1  UNL1        0.1859
      6 N         139.9054  145.6825  160.1938 N.2     1  UNL1       -0.2387
      7 C         139.9501  145.0266  161.5421 C.3     1  UNL1        0.1679
      8 C         139.2720  145.3526  162.8397 C.2     1  UNL1        0.0164
      9 C         139.5137  144.4970  164.0479 C.2     1  UNL1        0.0690
     10 CL        138.8356  144.8231  165.3456 Cl      1  UNL1       -0.0812
     11 C         138.4332  141.2195  164.7366 C.3     1  UNL1        0.0229
     12 C         139.6751  141.4120  165.5557 C.3     1  UNL1        0.0888
     13 C         139.9168  140.5565  166.7638 C.3     1  UNL1        0.0921
     14 N         141.1587  140.7490  167.5829 N.3     1  UNL1       -0.2689
     15 C         142.1588  141.7970  167.1937 C.3     1  UNL1        0.0938
     16 C         141.9170  142.6525  165.9856 C.3     1  UNL1        0.1081
     17 N         140.6752  142.4600  165.1666 N.pl3   1  UNL1       -0.3057
     18 C         141.4003  139.8934  168.7910 C.3     1  UNL1        0.0885
     19 C         140.4489  139.9456  169.9495 C.3     1  UNL1        0.1227
     20 C         140.5361  141.0671  170.9418 C.1     1  UNL1        0.0746
     21 N         140.6234  142.1884  171.9342 N.1     1  UNL1       -0.1958
     22 S         141.0495  145.2120  157.8243 S.3     1  UNL1       -0.0777
     23 C         139.9430  145.0632  156.8225 C.3     1  UNL1        0.0461
     24 C         140.0579  143.5706  156.9174 C.3     1  UNL1        0.0113
     25 C         139.8281  146.5558  156.7277 C.3     1  UNL1        0.0113
     26 C         138.8365  144.9144  155.8208 C.3     1  UNL1        0.0113
@<TRIPOS>BOND
     1    12    11    1
     2    12    13    1
     3    13    14    1
     4    14    18    1
     5    18    19    1
     6    19    20    1
     7    20    21    3
     8    14    15    1
     9    15    16    1
    10    16    17    1
    11    17     1    1
    12     1     2    2
    13     2     3    1
    14     3     4    2
    15     4     5    1
    16     5    22    1
    17    22    23    1
    18    23    24    1
    19    23    25    1
    20    23    26    1
    21     5     6    2
    22     6     7    1
    23     7     8    1
    24     8     9    2
    25     9    10    1
    26    17    12    1
    27     9     1    1
    28     7     3    1
@<TRIPOS>MOLECULE
*****
 26 28 0 0 0
SMALL
GASTEIGER

@<TRIPOS>ATOM
      1 C         143.2263  139.5347  163.4157 C.2     1  UNL1        0.0596
      2 C         142.3265  138.7432  162.5135 C.2     1  UNL1        0.0324
      3 C         142.5605  138.7445  161.0319 C.2     1  UNL1        0.0889
      4 N         141.8446  138.0656  159.9021 N.2     1  UNL1       -0.2236
      5 C         142.5360  138.4389  158.6243 C.2     1  UNL1        0.1859
      6 N         143.6792  139.3486  158.9645 N.2     1  UNL1       -0.2387
      7 C         143.6944  139.5374  160.4524 C.3     1  UNL1        0.1679
      8 C         144.5941  140.3289  161.3546 C.2     1  UNL1        0.0164
      9 C         144.3601  140.3276  162.8362 C.2     1  UNL1        0.0690
     10 CL        145.2599  141.1192  163.7384 Cl      1  UNL1       -0.0812
     11 C         141.5215  141.6626  164.6669 C.3     1  UNL1        0.0229
     12 C         142.1399  140.5973  165.5230 C.3     1  UNL1        0.0888
     13 C         141.9058  140.5960  167.0046 C.3     1  UNL1        0.0921
     14 N         142.5242  139.5306  167.8606 N.3     1  UNL1       -0.2689
     15 C         143.3766  138.4667  167.2350 C.3     1  UNL1        0.0938
     16 C         143.6106  138.4681  165.7534 C.3     1  UNL1        0.1081
     17 N         142.9923  139.5334  164.8974 N.pl3   1  UNL1       -0.3057
     18 C         142.2901  139.5293  169.3422 C.3     1  UNL1        0.0885
     19 C         142.6822  140.7210  170.1645 C.3     1  UNL1        0.1227
     20 C         141.6715  141.3857  171.0515 C.1     1  UNL1        0.0746
     21 N         140.6609  142.0504  171.9385 N.1     1  UNL1       -0.1958
     22 S         142.1516  137.9827  157.2481 S.3     1  UNL1       -0.0777
     23 C         143.1545  137.2766  156.3846 C.3     1  UNL1        0.0461
     24 C         143.3545  138.5327  155.5896 C.3     1  UNL1        0.0113
     25 C         142.9545  136.0204  157.1796 C.3     1  UNL1        0.0113
     26 C         144.1574  136.5704  155.5212 C.3     1  UNL1        0.0113
@<TRIPOS>BOND
     1    12    11    1
     2    12    13    1
     3    13    14    1
     4    14    18    1
     5    18    19    1
     6    19    20    1
     7    20    21    3
     8    14    15    1
     9    15    16    1
    10    16    17    1
    11    17     1    1
    12     1     2    2
    13     2     3    1
    14     3     4    2
    15     4     5    1
    16     5    22    1
    17    22    23    1
    18    23    24    1
    19    23    25    1
    20    23    26    1
    21     5     6    2
    22     6     7    1
    23     7     8    1
    24     8     9    2
    25     9    10    1
    26    17    12    1
    27     9     1    1
    28     7     3    1
@<TRIPOS>MOLECULE
*****
 26 28 0 0 0
SMALL
GASTEIGER

@<TRIPOS>ATOM
      1 C         140.9724  143.3979  163.0447 C.2     1  UNL1        0.0596
      2 C         141.4770  143.2203  161.6433 C.2     1  UNL1        0.0324
      3 C         141.0544  144.1762  160.5673 C.2     1  UNL1        0.0889
      4 N         141.3859  144.2533  159.1064 N.2     1  UNL1       -0.2236
      5 C         140.6637  145.4343  158.5290 C.2     1  UNL1        0.1859
      6 N         139.8857  146.0871  159.6329 N.2     1  UNL1       -0.2387
      7 C         140.1272  145.3095  160.8927 C.3     1  UNL1        0.1679
      8 C         139.6226  145.4870  162.2940 C.2     1  UNL1        0.0164
      9 C         140.0452  144.5312  163.3700 C.2     1  UNL1        0.0690
     10 CL        139.5406  144.7088  164.7715 Cl      1  UNL1       -0.0812
     11 C         143.4934  143.8998  164.5914 C.3     1  UNL1        0.0229
     12 C         142.6555  142.6930  164.8941 C.3     1  UNL1        0.0888
     13 C         143.0781  141.7372  165.9701 C.3     1  UNL1        0.0921
     14 N         142.2402  140.5304  166.2728 N.3     1  UNL1       -0.2689
     15 C         140.9796  140.2794  165.4994 C.3     1  UNL1        0.0938
     16 C         140.5571  141.2353  164.4234 C.3     1  UNL1        0.1081
     17 N         141.3950  142.4420  164.1208 N.pl3   1  UNL1       -0.3057
     18 C         142.6628  139.5746  167.3488 C.3     1  UNL1        0.0885
     19 C         142.5359  139.9655  168.7914 C.3     1  UNL1        0.1227
     20 C         141.2057  139.8750  169.4788 C.1     1  UNL1        0.0746
     21 N         139.8757  139.7844  170.1663 N.1     1  UNL1       -0.1958
     22 S         140.7110  145.8836  157.0986 S.3     1  UNL1       -0.0777
     23 C         139.4984  145.7411  156.2272 C.3     1  UNL1        0.0461
     24 C         139.7564  144.2682  156.1092 C.3     1  UNL1        0.0113
     25 C         139.2405  147.2140  156.3452 C.3     1  UNL1        0.0113
     26 C         138.2859  145.5986  155.3558 C.3     1  UNL1        0.0113
@<TRIPOS>BOND
     1    12    11    1
     2    12    13    1
     3    13    14    1
     4    14    18    1
     5    18    19    1
     6    19    20    1
     7    20    21    3
     8    14    15    1
     9    15    16    1
    10    16    17    1
    11    17     1    1
    12     1     2    2
    13     2     3    1
    14     3     4    2
    15     4     5    1
    16     5    22    1
    17    22    23    1
    18    23    24    1
    19    23    25    1
    20    23    26    1
    21     5     6    2
    22     6     7    1
    23     7     8    1
    24     8     9    2
    25     9    10    1
    26    17    12    1
    27     9     1    1
    28     7     3    1
@<TRIPOS>MOLECULE
*****
 26 28 0 0 0
SMALL
GASTEIGER

@<TRIPOS>ATOM
      1 C         143.3468  141.6428  163.5891 C.2     1  UNL1        0.0596
      2 C         142.1735  141.9528  162.7073 C.2     1  UNL1        0.0324
      3 C         142.3961  142.4118  161.2967 C.2     1  UNL1        0.0889
      4 N         141.4428  142.7880  160.2014 N.2     1  UNL1       -0.2236
      5 C         142.2494  143.1694  158.9957 C.2     1  UNL1        0.1859
      6 N         143.7012  143.0290  159.3458 N.2     1  UNL1       -0.2387
      7 C         143.7919  142.5607  160.7679 C.3     1  UNL1        0.1679
      8 C         144.9650  142.2507  161.6497 C.2     1  UNL1        0.0164
      9 C         144.7424  141.7918  163.0603 C.2     1  UNL1        0.0690
     10 CL        145.9157  141.4818  163.9420 Cl      1  UNL1       -0.0812
     11 C         143.1327  138.7129  164.1970 C.3     1  UNL1        0.0229
     12 C         143.0171  139.7189  165.3037 C.3     1  UNL1        0.0888
     13 C         142.7946  139.2599  166.7143 C.3     1  UNL1        0.0921
     14 N         142.6790  140.2660  167.8210 N.3     1  UNL1       -0.2689
     15 C         142.7861  141.7309  167.5170 C.3     1  UNL1        0.0938
     16 C         143.0086  142.1899  166.1064 C.3     1  UNL1        0.1081
     17 N         143.1242  141.1838  164.9998 N.pl3   1  UNL1       -0.3057
     18 C         142.4565  139.8069  169.2315 C.3     1  UNL1        0.0885
     19 C         141.0993  139.9367  169.8572 C.3     1  UNL1        0.1227
     20 C         140.8391  141.0145  170.8674 C.1     1  UNL1        0.0746
     21 N         140.5789  142.0924  171.8776 N.1     1  UNL1       -0.1958
     22 S         141.7005  143.6134  157.6722 S.3     1  UNL1       -0.0777
     23 C         140.8923  144.8737  157.5800 C.3     1  UNL1        0.0461
     24 C         142.1494  145.6867  157.6732 C.3     1  UNL1        0.0113
     25 C         139.6352  144.0607  157.4869 C.3     1  UNL1        0.0113
     26 C         140.0841  146.1339  157.4879 C.3     1  UNL1        0.0113
@<TRIPOS>BOND
     1    12    11    1
     2    12    13    1
     3    13    14    1
     4    14    18    1
     5    18    19    1
     6    19    20    1
     7    20    21    3
     8    14    15    1
     9    15    16    1
    10    16    17    1
    11    17     1    1
    12     1     2    2
    13     2     3    1
    14     3     4    2
    15     4     5    1
    16     5    22    1
    17    22    23    1
    18    23    24    1
    19    23    25    1
    20    23    26    1
    21     5     6    2
    22     6     7    1
    23     7     8    1
    24     8     9    2
    25     9    10    1
    26    17    12    1
    27     9     1    1
    28     7     3    1
@<TRIPOS>MOLECULE
*****
 26 28 0 0 0
SMALL
GASTEIGER

@<TRIPOS>ATOM
      1 C         142.4245  140.2466  163.1472 C.2     1  UNL1        0.0596
      2 C         141.4860  139.8125  162.0604 C.2     1  UNL1        0.0324
      3 C         142.0199  139.4701  160.7011 C.2     1  UNL1        0.0889
      4 N         141.3428  139.0154  159.4422 N.2     1  UNL1       -0.2236
      5 C         142.3966  138.8261  158.3916 C.2     1  UNL1        0.1859
      6 N         143.7249  139.1637  159.0012 N.2     1  UNL1       -0.2387
      7 C         143.4921  139.5618  160.4286 C.3     1  UNL1        0.1679
      8 C         144.4304  139.9959  161.5153 C.2     1  UNL1        0.0164
      9 C         143.8965  140.3383  162.8746 C.2     1  UNL1        0.0690
     10 CL        144.8350  140.7724  163.9614 Cl      1  UNL1       -0.0812
     11 C         142.3080  138.1460  165.2858 C.3     1  UNL1        0.0229
     12 C         141.8324  139.5388  165.5759 C.3     1  UNL1        0.0888
     13 C         141.2985  139.8812  166.9352 C.3     1  UNL1        0.0921
     14 N         140.8229  141.2739  167.2252 N.3     1  UNL1       -0.2689
     15 C         140.8811  142.3242  166.1559 C.3     1  UNL1        0.0938
     16 C         141.4150  141.9818  164.7966 C.3     1  UNL1        0.1081
     17 N         141.8906  140.5891  164.5066 N.pl3   1  UNL1       -0.3057
     18 C         140.2891  141.6163  168.5845 C.3     1  UNL1        0.0885
     19 C         140.5129  142.9853  169.1552 C.3     1  UNL1        0.1227
     20 C         141.7410  143.2672  169.9691 C.1     1  UNL1        0.0746
     21 N         142.9691  143.5490  170.7828 N.1     1  UNL1       -0.1958
     22 S         142.1630  138.3777  156.9794 S.3     1  UNL1       -0.0777
     23 C         143.1660  137.4955  156.2970 C.3     1  UNL1        0.0461
     24 C         142.7034  136.3314  157.1221 C.3     1  UNL1        0.0113
     25 C         143.6286  138.6596  155.4719 C.3     1  UNL1        0.0113
     26 C         144.1690  136.6133  155.6146 C.3     1  UNL1        0.0113
@<TRIPOS>BOND
     1    12    11    1
     2    12    13    1
     3    13    14    1
     4    14    18    1
     5    18    19    1
     6    19    20    1
     7    20    21    3
     8    14    15    1
     9    15    16    1
    10    16    17    1
    11    17     1    1
    12     1     2    2
    13     2     3    1
    14     3     4    2
    15     4     5    1
    16     5    22    1
    17    22    23    1
    18    23    24    1
    19    23    25    1
    20    23    26    1
    21     5     6    2
    22     6     7    1
    23     7     8    1
    24     8     9    2
    25     9    10    1
    26    17    12    1
    27     9     1    1
    28     7     3    1
@<TRIPOS>MOLECULE
*****
 26 28 0 0 0
SMALL
GASTEIGER

@<TRIPOS>ATOM
      1 C         139.3225  140.5437  163.4273 C.2     1  UNL1        0.0596
      2 C         139.7625  141.3523  164.6117 C.2     1  UNL1        0.0324
      3 C         139.5709  140.8156  165.9992 C.2     1  UNL1        0.0889
      4 N         139.9025  141.3805  167.3485 N.2     1  UNL1       -0.2236
      5 C         139.4758  140.3844  168.3857 C.2     1  UNL1        0.1859
      6 N         138.8806  139.2038  167.6773 N.2     1  UNL1       -0.2387
      7 C         138.9393  139.4702  166.2023 C.3     1  UNL1        0.1679
      8 C         138.4994  138.6617  165.0180 C.2     1  UNL1        0.0164
      9 C         138.6910  139.1985  163.6305 C.2     1  UNL1        0.0690
     10 CL        138.2509  138.3899  162.4461 Cl      1  UNL1       -0.0812
     11 C         141.8449  139.9392  161.9201 C.3     1  UNL1        0.0229
     12 C         140.7753  140.7782  161.2861 C.3     1  UNL1        0.0888
     13 C         140.9668  141.3150  159.8986 C.3     1  UNL1        0.0921
     14 N         139.8971  142.1541  159.2647 N.3     1  UNL1       -0.2689
     15 C         138.6359  142.4564  160.0184 C.3     1  UNL1        0.0938
     16 C         138.4444  141.9196  161.4058 C.3     1  UNL1        0.1081
     17 N         139.5140  141.0805  162.0397 N.pl3   1  UNL1       -0.3057
     18 C         140.0888  142.6908  157.8773 C.3     1  UNL1        0.0885
     19 C         141.4430  143.1609  157.4353 C.3     1  UNL1        0.1227
     20 C         141.8884  144.5599  157.7423 C.1     1  UNL1        0.0746
     21 N         142.3338  145.9589  158.0494 N.1     1  UNL1       -0.1958
     22 S         139.6192  140.5413  169.8705 S.3     1  UNL1       -0.0777
     23 C         140.8030  141.2677  170.4371 C.3     1  UNL1        0.0461
     24 C         141.6461  140.0416  170.2475 C.3     1  UNL1        0.0113
     25 C         139.9599  142.4938  170.6267 C.3     1  UNL1        0.0113
     26 C         141.9868  141.9941  171.0037 C.3     1  UNL1        0.0113
@<TRIPOS>BOND
     1    12    11    1
     2    12    13    1
     3    13    14    1
     4    14    18    1
     5    18    19    1
     6    19    20    1
     7    20    21    3
     8    14    15    1
     9    15    16    1
    10    16    17    1
    11    17     1    1
    12     1     2    2
    13     2     3    1
    14     3     4    2
    15     4     5    1
    16     5    22    1
    17    22    23    1
    18    23    24    1
    19    23    25    1
    20    23    26    1
    21     5     6    2
    22     6     7    1
    23     7     8    1
    24     8     9    2
    25     9    10    1
    26    17    12    1
    27     9     1    1
    28     7     3    1
@<TRIPOS>MOLECULE
*****
 26 28 0 0 0
SMALL
GASTEIGER

@<TRIPOS>ATOM
      1 C         140.0283  139.4542  163.7427 C.2     1  UNL1        0.0596
      2 C         140.5788  140.5304  164.6309 C.2     1  UNL1        0.0324
      3 C         140.2298  140.5503  166.0896 C.2     1  UNL1        0.0889
      4 N         140.6183  141.4785  167.2019 N.2     1  UNL1       -0.2236
      5 C         139.9590  140.9960  168.4599 C.2     1  UNL1        0.1859
      6 N         139.1629  139.7696  168.1250 N.2     1  UNL1       -0.2387
      7 C         139.3302  139.4941  166.6600 C.3     1  UNL1        0.1679
      8 C         138.7798  138.4180  165.7718 C.2     1  UNL1        0.0164
      9 C         139.1289  138.3981  164.3131 C.2     1  UNL1        0.0690
     10 CL        138.5784  137.3219  163.4249 Cl      1  UNL1       -0.0812
     11 C         142.4331  137.9304  162.7965 C.3     1  UNL1        0.0229
     12 C         141.5798  138.6723  161.8108 C.3     1  UNL1        0.0888
     13 C         141.9288  138.6524  160.3522 C.3     1  UNL1        0.0921
     14 N         141.0755  139.3943  159.3666 N.3     1  UNL1       -0.2689
     15 C         139.8731  140.1562  159.8397 C.3     1  UNL1        0.0938
     16 C         139.5240  140.1761  161.2983 C.3     1  UNL1        0.1081
     17 N         140.3774  139.4342  162.2839 N.pl3   1  UNL1       -0.3057
     18 C         141.4246  139.3743  157.9079 C.3     1  UNL1        0.0885
     19 C         142.7155  138.7598  157.4541 C.3     1  UNL1        0.1227
     20 C         142.7510  137.3246  157.0194 C.1     1  UNL1        0.0746
     21 N         142.7865  135.8894  156.5846 N.1     1  UNL1       -0.1958
     22 S         140.0752  141.6289  169.8149 S.3     1  UNL1       -0.0777
     23 C         141.3127  142.3928  170.1822 C.3     1  UNL1        0.0461
     24 C         142.0004  141.1079  170.5374 C.3     1  UNL1        0.0113
     25 C         140.6250  143.6776  169.8270 C.3     1  UNL1        0.0113
     26 C         142.5503  143.1567  170.5495 C.3     1  UNL1        0.0113
@<TRIPOS>BOND
     1    12    11    1
     2    12    13    1
     3    13    14    1
     4    14    18    1
     5    18    19    1
     6    19    20    1
     7    20    21    3
     8    14    15    1
     9    15    16    1
    10    16    17    1
    11    17     1    1
    12     1     2    2
    13     2     3    1
    14     3     4    2
    15     4     5    1
    16     5    22    1
    17    22    23    1
    18    23    24    1
    19    23    25    1
    20    23    26    1
    21     5     6    2
    22     6     7    1
    23     7     8    1
    24     8     9    2
    25     9    10    1
    26    17    12    1
    27     9     1    1
    28     7     3    1
@<TRIPOS>MOLECULE
*****
 26 28 0 0 0
SMALL
GASTEIGER

@<TRIPOS>ATOM
      1 C         140.1365  143.2800  161.8153 C.2     1  UNL1        0.0596
      2 C         139.6924  142.7540  160.4825 C.2     1  UNL1        0.0324
      3 C         139.7856  143.6239  159.2641 C.2     1  UNL1        0.0889
      4 N         139.4269  143.3815  157.8279 N.2     1  UNL1       -0.2236
      5 C         139.7425  144.6275  157.0547 C.2     1  UNL1        0.1859
      6 N         140.2962  145.6400  158.0129 N.2     1  UNL1       -0.2387
      7 C         140.3228  145.0198  159.3784 C.3     1  UNL1        0.1679
      8 C         140.7668  145.5456  160.7112 C.2     1  UNL1        0.0164
      9 C         140.6736  144.6757  161.9296 C.2     1  UNL1        0.0690
     10 CL        141.1177  145.2017  163.2624 Cl      1  UNL1       -0.0812
     11 C         137.6808  143.3671  163.5363 C.3     1  UNL1        0.0229
     12 C         138.8154  142.4536  163.8943 C.3     1  UNL1        0.0888
     13 C         138.7223  141.5836  165.1127 C.3     1  UNL1        0.0921
     14 N         139.8569  140.6701  165.4705 N.3     1  UNL1       -0.2689
     15 C         141.0848  140.6265  164.6100 C.3     1  UNL1        0.0938
     16 C         141.1779  141.4965  163.3916 C.3     1  UNL1        0.1081
     17 N         140.0433  142.4100  163.0337 N.pl3   1  UNL1       -0.3057
     18 C         139.7637  139.8002  166.6889 C.3     1  UNL1        0.0885
     19 C         140.1027  140.3607  168.0384 C.3     1  UNL1        0.1227
     20 C         139.1636  140.1614  169.1909 C.1     1  UNL1        0.0746
     21 N         138.2245  139.9620  170.3434 N.1     1  UNL1       -0.1958
     22 S         139.5399  144.8261  155.5817 S.3     1  UNL1       -0.0777
     23 C         139.8886  146.1398  154.9472 C.3     1  UNL1        0.0461
     24 C         141.2746  145.6377  154.6695 C.3     1  UNL1        0.0113
     25 C         138.5027  146.6418  155.2248 C.3     1  UNL1        0.0113
     26 C         140.2373  147.4534  154.3126 C.3     1  UNL1        0.0113
@<TRIPOS>BOND
     1    12    11    1
     2    12    13    1
     3    13    14    1
     4    14    18    1
     5    18    19    1
     6    19    20    1
     7    20    21    3
     8    14    15    1
     9    15    16    1
    10    16    17    1
    11    17     1    1
    12     1     2    2
    13     2     3    1
    14     3     4    2
    15     4     5    1
    16     5    22    1
    17    22    23    1
    18    23    24    1
    19    23    25    1
    20    23    26    1
    21     5     6    2
    22     6     7    1
    23     7     8    1
    24     8     9    2
    25     9    10    1
    26    17    12    1
    27     9     1    1
    28     7     3    1
@<TRIPOS>MOLECULE
*****
 26 28 0 0 0
SMALL
GASTEIGER

@<TRIPOS>ATOM
      1 C         140.0297  139.8708  163.1530 C.2     1  UNL1        0.0596
      2 C         139.7030  141.1100  162.3733 C.2     1  UNL1        0.0324
      3 C         139.1343  140.9973  160.9899 C.2     1  UNL1        0.0889
      4 N         138.7174  142.0335  159.9886 N.2     1  UNL1       -0.2236
      5 C         138.2178  141.3222  158.7662 C.2     1  UNL1        0.1859
      6 N         138.3259  139.8464  159.0119 N.2     1  UNL1       -0.2387
      7 C         138.8924  139.6456  160.3862 C.3     1  UNL1        0.1679
      8 C         139.2191  138.4066  161.1660 C.2     1  UNL1        0.0164
      9 C         139.7878  138.5192  162.5494 C.2     1  UNL1        0.0690
     10 CL        140.1145  137.2801  163.3292 Cl      1  UNL1       -0.0812
     11 C         138.2048  139.8222  165.5336 C.3     1  UNL1        0.0229
     12 C         139.6860  139.9592  165.7268 C.3     1  UNL1        0.0888
     13 C         140.2547  140.0718  167.1102 C.3     1  UNL1        0.0921
     14 N         141.7359  140.2088  167.3034 N.3     1  UNL1       -0.2689
     15 C         142.6484  140.2332  166.1131 C.3     1  UNL1        0.0938
     16 C         142.0797  140.1205  164.7297 C.3     1  UNL1        0.1081
     17 N         140.5985  139.9835  164.5366 N.pl3   1  UNL1       -0.3057
     18 C         142.3045  140.3215  168.6868 C.3     1  UNL1        0.0885
     19 C         141.4749  139.9281  169.8730 C.3     1  UNL1        0.1227
     20 C         141.0705  140.9620  170.8816 C.1     1  UNL1        0.0746
     21 N         140.6661  141.9960  171.8903 N.1     1  UNL1       -0.1958
     22 S         137.7008  141.9725  157.5172 S.3     1  UNL1       -0.0777
     23 C         137.7532  141.2362  156.2114 C.3     1  UNL1        0.0461
     24 C         139.2230  141.5186  156.1112 C.3     1  UNL1        0.0113
     25 C         136.2835  140.9539  156.3116 C.3     1  UNL1        0.0113
     26 C         137.8057  140.5000  154.9056 C.3     1  UNL1        0.0113
@<TRIPOS>BOND
     1    12    11    1
     2    12    13    1
     3    13    14    1
     4    14    18    1
     5    18    19    1
     6    19    20    1
     7    20    21    3
     8    14    15    1
     9    15    16    1
    10    16    17    1
    11    17     1    1
    12     1     2    2
    13     2     3    1
    14     3     4    2
    15     4     5    1
    16     5    22    1
    17    22    23    1
    18    23    24    1
    19    23    25    1
    20    23    26    1
    21     5     6    2
    22     6     7    1
    23     7     8    1
    24     8     9    2
    25     9    10    1
    26    17    12    1
    27     9     1    1
    28     7     3    1
