@<TRIPOS>MOLECULE
*****
 29 31 0 0 0
SMALL
GASTEIGER

@<TRIPOS>ATOM
      1 C         138.9477  138.2796  162.6035 C.ar    1  UNL1        0.0496
      2 C         138.3204  139.5836  162.9987 C.ar    1  UNL1        0.0178
      3 C         138.1192  139.9100  164.4489 C.ar    1  UNL1        0.0388
      4 C         138.5452  138.9325  165.5039 C.ar    1  UNL1        0.1454
      5 C         139.1725  137.6286  165.1087 C.ar    1  UNL1        0.0388
      6 C         139.3738  137.3021  163.6586 C.ar    1  UNL1        0.0178
      7 N         139.1490  137.9532  161.1534 N.pl3   1  UNL1       -0.2966
      8 H         138.4273  137.5218  160.6412 H       1  UNL1        0.1537
      9 N         144.3395  138.1690  161.2630 N.pl3   1  UNL1       -0.3413
     10 C         143.0451  138.3918  160.5385 C.ar    1  UNL1        0.1462
     11 C         143.0515  138.9452  159.1444 C.ar    1  UNL1        0.1327
     12 N         141.7570  139.1680  158.4199 N.ar    1  UNL1       -0.2365
     13 C         140.4562  138.8373  159.0896 C.ar    1  UNL1        0.1333
     14 C         140.4498  138.2839  160.4837 C.ar    1  UNL1        0.1529
     15 N         141.7443  138.0611  161.2082 N.ar    1  UNL1       -0.2132
     16 H         145.1933  138.3860  160.8234 H       1  UNL1        0.1438
     17 H         144.3353  137.8057  162.1780 H       1  UNL1        0.1438
     18 O         138.3439  139.2590  166.9540 O.3     1  UNL1       -0.4535
     19 C         139.2603  140.2294  167.6385 C.ar    1  UNL1        0.1455
     20 C         139.4437  140.1664  169.1259 C.ar    1  UNL1        0.0406
     21 C         140.3600  141.1368  169.8104 C.ar    1  UNL1        0.0403
     22 C         141.0930  142.1703  169.0075 C.ar    1  UNL1        0.1470
     23 C         140.9097  142.2333  167.5200 C.ar    1  UNL1        0.0403
     24 C         139.9934  141.2629  166.8355 C.ar    1  UNL1        0.0406
     25 O         142.0094  143.1407  169.6920 O.3     1  UNL1       -0.4045
     26 C         143.4373  142.7651  169.9564 C.3     1  UNL1        0.5753
     27 F         144.8652  142.3895  170.2209 F       1  UNL1       -0.1328
     28 F         143.4888  143.7541  171.0830 F       1  UNL1       -0.1328
     29 F         143.3858  141.7761  168.8299 F       1  UNL1       -0.1328
@<TRIPOS>BOND
     1     9    10    1
     2    10    11   ar
     3    11    12   ar
     4    12    13   ar
     5    13    14   ar
     6    14     7    1
     7     7     1    1
     8     1     2   ar
     9     2     3   ar
    10     3     4   ar
    11     4    18    1
    12    18    19    1
    13    19    20   ar
    14    20    21   ar
    15    21    22   ar
    16    22    25    1
    17    25    26    1
    18    26    27    1
    19    26    28    1
    20    26    29    1
    21    22    23   ar
    22    23    24   ar
    23     4     5   ar
    24     5     6   ar
    25    14    15   ar
    26    15    10   ar
    27     6     1   ar
    28    24    19   ar
    29     9    16    1
    30     9    17    1
    31     7     8    1
@<TRIPOS>MOLECULE
*****
 29 31 0 0 0
SMALL
GASTEIGER

@<TRIPOS>ATOM
      1 C         138.9873  138.5268  162.0164 C.ar    1  UNL1        0.0496
      2 C         139.2817  137.5130  163.0819 C.ar    1  UNL1        0.0178
      3 C         139.0265  137.8434  164.5227 C.ar    1  UNL1        0.0388
      4 C         138.4769  139.1877  164.8979 C.ar    1  UNL1        0.1454
      5 C         138.1824  140.2016  163.8324 C.ar    1  UNL1        0.0388
      6 C         138.4376  139.8712  162.3917 C.ar    1  UNL1        0.0178
      7 N         139.2425  138.1965  160.5757 N.pl3   1  UNL1       -0.2966
      8 H         138.5566  137.7249  160.0499 H       1  UNL1        0.1537
      9 N         144.4194  138.5911  160.7852 N.pl3   1  UNL1       -0.3413
     10 C         143.1311  138.7818  160.0409 C.ar    1  UNL1        0.1462
     11 C         143.1430  139.3605  158.6571 C.ar    1  UNL1        0.1327
     12 N         141.8547  139.5512  157.9129 N.ar    1  UNL1       -0.2365
     13 C         140.5545  139.1632  158.5524 C.ar    1  UNL1        0.1333
     14 C         140.5427  138.5845  159.9361 C.ar    1  UNL1        0.1529
     15 N         141.8309  138.3938  160.6804 N.ar    1  UNL1       -0.2132
     16 H         145.2727  138.8458  160.3655 H       1  UNL1        0.1438
     17 H         144.4116  138.2113  161.6935 H       1  UNL1        0.1438
     18 O         138.2217  139.5181  166.3386 O.3     1  UNL1       -0.4535
     19 C         139.3667  139.8688  167.2418 C.ar    1  UNL1        0.1455
     20 C         140.7160  140.1698  166.6599 C.ar    1  UNL1        0.0406
     21 C         141.8611  140.5205  167.5632 C.ar    1  UNL1        0.0403
     22 C         141.6568  140.5703  169.0483 C.ar    1  UNL1        0.1470
     23 C         140.3074  140.2694  169.6303 C.ar    1  UNL1        0.0403
     24 C         139.1623  139.9186  168.7271 C.ar    1  UNL1        0.0406
     25 O         142.8018  140.9211  169.9516 O.3     1  UNL1       -0.4045
     26 C         143.0232  142.3465  170.3630 C.3     1  UNL1        0.5753
     27 F         143.2445  143.7718  170.7744 F       1  UNL1       -0.1328
     28 F         142.0599  142.1682  171.4989 F       1  UNL1       -0.1328
     29 F         143.9864  142.5247  169.2271 F       1  UNL1       -0.1328
@<TRIPOS>BOND
     1     9    10    1
     2    10    11   ar
     3    11    12   ar
     4    12    13   ar
     5    13    14   ar
     6    14     7    1
     7     7     1    1
     8     1     2   ar
     9     2     3   ar
    10     3     4   ar
    11     4    18    1
    12    18    19    1
    13    19    20   ar
    14    20    21   ar
    15    21    22   ar
    16    22    25    1
    17    25    26    1
    18    26    27    1
    19    26    28    1
    20    26    29    1
    21    22    23   ar
    22    23    24   ar
    23     4     5   ar
    24     5     6   ar
    25    14    15   ar
    26    15    10   ar
    27     6     1   ar
    28    24    19   ar
    29     9    16    1
    30     9    17    1
    31     7     8    1
@<TRIPOS>MOLECULE
*****
 29 31 0 0 0
SMALL
GASTEIGER

@<TRIPOS>ATOM
      1 C         138.9740  139.5800  167.3419 C.ar    1  UNL1        0.0496
      2 C         139.7945  140.6424  166.6725 C.ar    1  UNL1        0.0178
      3 C         139.9677  140.6288  165.1825 C.ar    1  UNL1        0.0388
      4 C         139.3204  139.5528  164.3620 C.ar    1  UNL1        0.1454
      5 C         138.4999  138.4904  165.0314 C.ar    1  UNL1        0.0388
      6 C         138.3267  138.5040  166.5213 C.ar    1  UNL1        0.0178
      7 N         138.8009  139.5935  168.8317 N.pl3   1  UNL1       -0.2966
      8 H         138.0382  139.1260  169.2429 H       1  UNL1        0.1537
      9 N         143.4679  139.8328  171.1037 N.pl3   1  UNL1       -0.3413
     10 C         142.1232  140.4390  170.8311 C.ar    1  UNL1        0.1462
     11 C         141.7672  141.7710  171.4220 C.ar    1  UNL1        0.1327
     12 N         140.4225  142.3771  171.1494 N.ar    1  UNL1       -0.2365
     13 C         139.4337  141.6514  170.2860 C.ar    1  UNL1        0.1333
     14 C         139.7897  140.3194  169.6952 C.ar    1  UNL1        0.1529
     15 N         141.1344  139.7132  169.9677 N.ar    1  UNL1       -0.2132
     16 H         144.1168  140.3092  171.6704 H       1  UNL1        0.1438
     17 H         143.7015  138.9586  170.7159 H       1  UNL1        0.1438
     18 O         139.4936  139.5393  162.8721 O.3     1  UNL1       -0.4535
     19 C         139.5224  140.8301  162.1087 C.ar    1  UNL1        0.1455
     20 C         140.8350  141.4334  161.7047 C.ar    1  UNL1        0.0406
     21 C         140.8639  142.7242  160.9412 C.ar    1  UNL1        0.0403
     22 C         139.5802  143.4118  160.5817 C.ar    1  UNL1        0.1470
     23 C         138.2675  142.8086  160.9857 C.ar    1  UNL1        0.0403
     24 C         138.2387  141.5177  161.7491 C.ar    1  UNL1        0.0406
     25 O         139.6091  144.7026  159.8182 O.3     1  UNL1       -0.4045
     26 C         140.4546  144.8261  158.5854 C.3     1  UNL1        0.5753
     27 F         141.3001  144.9495  157.3526 F       1  UNL1       -0.1328
     28 F         139.4279  144.0604  157.8046 F       1  UNL1       -0.1328
     29 F         141.4812  145.5918  159.3662 F       1  UNL1       -0.1328
@<TRIPOS>BOND
     1     9    10    1
     2    10    11   ar
     3    11    12   ar
     4    12    13   ar
     5    13    14   ar
     6    14     7    1
     7     7     1    1
     8     1     2   ar
     9     2     3   ar
    10     3     4   ar
    11     4    18    1
    12    18    19    1
    13    19    20   ar
    14    20    21   ar
    15    21    22   ar
    16    22    25    1
    17    25    26    1
    18    26    27    1
    19    26    28    1
    20    26    29    1
    21    22    23   ar
    22    23    24   ar
    23     4     5   ar
    24     5     6   ar
    25    14    15   ar
    26    15    10   ar
    27     6     1   ar
    28    24    19   ar
    29     9    16    1
    30     9    17    1
    31     7     8    1
@<TRIPOS>MOLECULE
*****
 29 31 0 0 0
SMALL
GASTEIGER

@<TRIPOS>ATOM
      1 C         138.2185  141.1874  162.0036 C.ar    1  UNL1        0.0496
      2 C         138.8169  139.8158  162.1064 C.ar    1  UNL1        0.0178
      3 C         138.9289  139.1446  163.4432 C.ar    1  UNL1        0.0388
      4 C         138.4424  139.8451  164.6772 C.ar    1  UNL1        0.1454
      5 C         137.8440  141.2167  164.5744 C.ar    1  UNL1        0.0388
      6 C         137.7320  141.8879  163.2376 C.ar    1  UNL1        0.0178
      7 N         138.1065  141.8586  160.6668 N.pl3   1  UNL1       -0.2966
      8 H         137.4788  141.5112  159.9927 H       1  UNL1        0.1537
      9 N         140.2761  146.3392  162.1556 N.pl3   1  UNL1       -0.3413
     10 C         140.0358  145.2993  161.1016 C.ar    1  UNL1        0.1462
     11 C         140.6399  145.4599  159.7381 C.ar    1  UNL1        0.1327
     12 N         140.3995  144.4200  158.6841 N.ar    1  UNL1       -0.2365
     13 C         139.5551  143.2196  158.9937 C.ar    1  UNL1        0.1333
     14 C         138.9510  143.0590  160.3572 C.ar    1  UNL1        0.1529
     15 N         139.1914  144.0989  161.4112 N.ar    1  UNL1       -0.2132
     16 H         140.8304  147.1271  161.9524 H       1  UNL1        0.1438
     17 H         139.8796  146.2339  163.0506 H       1  UNL1        0.1438
     18 O         138.5544  139.1739  166.0139 O.3     1  UNL1       -0.4535
     19 C         139.6315  139.5869  166.9727 C.ar    1  UNL1        0.1455
     20 C         141.0607  139.6348  166.5198 C.ar    1  UNL1        0.0406
     21 C         142.1378  140.0479  167.4785 C.ar    1  UNL1        0.0403
     22 C         141.7858  140.4130  168.8901 C.ar    1  UNL1        0.1470
     23 C         140.3566  140.3651  169.3431 C.ar    1  UNL1        0.0403
     24 C         139.2794  139.9520  168.3844 C.ar    1  UNL1        0.0406
     25 O         142.8630  140.8260  169.8489 O.3     1  UNL1       -0.4045
     26 C         142.9784  142.2595  170.2751 C.3     1  UNL1        0.5753
     27 F         143.0938  143.6930  170.7013 F       1  UNL1       -0.1328
     28 F         142.1021  141.9779  171.4594 F       1  UNL1       -0.1328
     29 F         143.8547  142.5410  169.0907 F       1  UNL1       -0.1328
@<TRIPOS>BOND
     1     9    10    1
     2    10    11   ar
     3    11    12   ar
     4    12    13   ar
     5    13    14   ar
     6    14     7    1
     7     7     1    1
     8     1     2   ar
     9     2     3   ar
    10     3     4   ar
    11     4    18    1
    12    18    19    1
    13    19    20   ar
    14    20    21   ar
    15    21    22   ar
    16    22    25    1
    17    25    26    1
    18    26    27    1
    19    26    28    1
    20    26    29    1
    21    22    23   ar
    22    23    24   ar
    23     4     5   ar
    24     5     6   ar
    25    14    15   ar
    26    15    10   ar
    27     6     1   ar
    28    24    19   ar
    29     9    16    1
    30     9    17    1
    31     7     8    1
@<TRIPOS>MOLECULE
*****
 29 31 0 0 0
SMALL
GASTEIGER

@<TRIPOS>ATOM
      1 C         139.0498  139.3752  167.4230 C.ar    1  UNL1        0.0496
      2 C         138.1670  138.3059  166.8509 C.ar    1  UNL1        0.0178
      3 C         138.4511  137.7488  165.4875 C.ar    1  UNL1        0.0388
      4 C         139.6178  138.2609  164.6961 C.ar    1  UNL1        0.1454
      5 C         140.5006  139.3303  165.2682 C.ar    1  UNL1        0.0388
      6 C         140.2167  139.8874  166.6316 C.ar    1  UNL1        0.0178
      7 N         138.7659  139.9323  168.7864 N.pl3   1  UNL1       -0.2966
      8 H         137.8605  139.8644  169.1671 H       1  UNL1        0.1537
      9 N         143.4081  139.6983  171.1091 N.pl3   1  UNL1       -0.3413
     10 C         142.1824  140.4760  170.7311 C.ar    1  UNL1        0.1462
     11 C         142.0521  141.9142  171.1364 C.ar    1  UNL1        0.1327
     12 N         140.8264  142.6919  170.7584 N.ar    1  UNL1       -0.2365
     13 C         139.7310  142.0313  169.9750 C.ar    1  UNL1        0.1333
     14 C         139.8613  140.5930  169.5698 C.ar    1  UNL1        0.1529
     15 N         141.0870  139.8153  169.9478 N.ar    1  UNL1       -0.2132
     16 H         144.1271  140.1319  171.6232 H       1  UNL1        0.1438
     17 H         143.4936  138.7543  170.8431 H       1  UNL1        0.1438
     18 O         139.9018  137.7038  163.3327 O.3     1  UNL1       -0.4535
     19 C         139.3489  138.3829  162.1149 C.ar    1  UNL1        0.1455
     20 C         140.1488  138.4160  160.8464 C.ar    1  UNL1        0.0406
     21 C         139.5959  139.0952  159.6286 C.ar    1  UNL1        0.0403
     22 C         138.2431  139.7412  159.6793 C.ar    1  UNL1        0.1470
     23 C         137.4432  139.7082  160.9478 C.ar    1  UNL1        0.0403
     24 C         137.9961  139.0290  162.1656 C.ar    1  UNL1        0.0406
     25 O         137.6902  140.4204  158.4614 O.3     1  UNL1       -0.4045
     26 C         138.2944  141.7063  157.9805 C.3     1  UNL1        0.5753
     27 F         138.8986  142.9922  157.4995 F       1  UNL1       -0.1328
     28 F         138.4512  141.1196  156.6089 F       1  UNL1       -0.1328
     29 F         138.1376  142.2929  159.3520 F       1  UNL1       -0.1328
@<TRIPOS>BOND
     1     9    10    1
     2    10    11   ar
     3    11    12   ar
     4    12    13   ar
     5    13    14   ar
     6    14     7    1
     7     7     1    1
     8     1     2   ar
     9     2     3   ar
    10     3     4   ar
    11     4    18    1
    12    18    19    1
    13    19    20   ar
    14    20    21   ar
    15    21    22   ar
    16    22    25    1
    17    25    26    1
    18    26    27    1
    19    26    28    1
    20    26    29    1
    21    22    23   ar
    22    23    24   ar
    23     4     5   ar
    24     5     6   ar
    25    14    15   ar
    26    15    10   ar
    27     6     1   ar
    28    24    19   ar
    29     9    16    1
    30     9    17    1
    31     7     8    1
@<TRIPOS>MOLECULE
*****
 29 31 0 0 0
SMALL
GASTEIGER

@<TRIPOS>ATOM
      1 C         140.6990  145.1040  160.4969 C.ar    1  UNL1        0.0496
      2 C         140.1629  145.8710  161.6692 C.ar    1  UNL1        0.0178
      3 C         139.2454  145.2002  162.6482 C.ar    1  UNL1        0.0388
      4 C         138.8641  143.7625  162.4549 C.ar    1  UNL1        0.1454
      5 C         139.4002  142.9955  161.2826 C.ar    1  UNL1        0.0388
      6 C         140.3176  143.6662  160.3036 C.ar    1  UNL1        0.0178
      7 N         141.6164  145.7747  159.5180 N.pl3   1  UNL1       -0.2966
      8 H         142.4300  146.2282  159.8369 H       1  UNL1        0.1537
      9 N         138.4376  146.9931  155.5923 N.pl3   1  UNL1       -0.3413
     10 C         139.7049  146.3638  156.0903 C.ar    1  UNL1        0.1462
     11 C         140.6500  145.7143  155.1234 C.ar    1  UNL1        0.1327
     12 N         141.9173  145.0849  155.6214 N.ar    1  UNL1       -0.2365
     13 C         142.2394  145.1050  157.0862 C.ar    1  UNL1        0.1333
     14 C         141.2943  145.7545  158.0530 C.ar    1  UNL1        0.1529
     15 N         140.0270  146.3839  157.5551 N.ar    1  UNL1       -0.2132
     16 H         138.2262  146.9799  154.6309 H       1  UNL1        0.1438
     17 H         137.8173  147.4194  156.2269 H       1  UNL1        0.1438
     18 O         137.9466  143.0918  163.4338 O.3     1  UNL1       -0.4535
     19 C         138.5132  142.2342  164.5263 C.ar    1  UNL1        0.1455
     20 C         139.5378  142.7967  165.4663 C.ar    1  UNL1        0.0406
     21 C         140.1044  141.9391  166.5588 C.ar    1  UNL1        0.0403
     22 C         139.6462  140.5190  166.7114 C.ar    1  UNL1        0.1470
     23 C         138.6214  139.9564  165.7714 C.ar    1  UNL1        0.0403
     24 C         138.0549  140.8140  164.6789 C.ar    1  UNL1        0.0406
     25 O         140.2127  139.6614  167.8039 O.3     1  UNL1       -0.4045
     26 C         140.0862  140.0901  169.2357 C.3     1  UNL1        0.5753
     27 F         139.9598  140.5188  170.6675 F       1  UNL1       -0.1328
     28 F         141.5808  140.1322  169.3551 F       1  UNL1       -0.1328
     29 F         138.5916  140.0480  169.1163 F       1  UNL1       -0.1328
@<TRIPOS>BOND
     1     9    10    1
     2    10    11   ar
     3    11    12   ar
     4    12    13   ar
     5    13    14   ar
     6    14     7    1
     7     7     1    1
     8     1     2   ar
     9     2     3   ar
    10     3     4   ar
    11     4    18    1
    12    18    19    1
    13    19    20   ar
    14    20    21   ar
    15    21    22   ar
    16    22    25    1
    17    25    26    1
    18    26    27    1
    19    26    28    1
    20    26    29    1
    21    22    23   ar
    22    23    24   ar
    23     4     5   ar
    24     5     6   ar
    25    14    15   ar
    26    15    10   ar
    27     6     1   ar
    28    24    19   ar
    29     9    16    1
    30     9    17    1
    31     7     8    1
@<TRIPOS>MOLECULE
*****
 29 31 0 0 0
SMALL
GASTEIGER

@<TRIPOS>ATOM
      1 C         139.7044  140.4901  166.3668 C.ar    1  UNL1        0.0496
      2 C         140.3664  141.8206  166.1630 C.ar    1  UNL1        0.0178
      3 C         139.8274  142.7778  165.1416 C.ar    1  UNL1        0.0388
      4 C         138.6264  142.4045  164.3240 C.ar    1  UNL1        0.1454
      5 C         137.9645  141.0740  164.5279 C.ar    1  UNL1        0.0388
      6 C         138.5034  140.1168  165.5492 C.ar    1  UNL1        0.0178
      7 N         140.2433  139.5329  167.3882 N.pl3   1  UNL1       -0.2966
      8 H         140.3341  138.5776  167.1680 H       1  UNL1        0.1537
      9 N         143.7242  139.7997  171.2369 N.pl3   1  UNL1       -0.3413
     10 C         142.3844  140.1644  170.6695 C.ar    1  UNL1        0.1462
     11 C         141.4453  141.0273  171.4590 C.ar    1  UNL1        0.1327
     12 N         140.1055  141.3921  170.8916 N.ar    1  UNL1       -0.2365
     13 C         139.7048  140.8940  169.5347 C.ar    1  UNL1        0.1333
     14 C         140.6440  140.0311  168.7452 C.ar    1  UNL1        0.1529
     15 N         141.9837  139.6663  169.3126 N.ar    1  UNL1       -0.2132
     16 H         143.9871  140.1266  172.1275 H       1  UNL1        0.1438
     17 H         144.3406  139.2333  170.7187 H       1  UNL1        0.1438
     18 O         138.0875  143.3617  163.3027 O.3     1  UNL1       -0.4535
     19 C         138.9981  143.9341  162.2571 C.ar    1  UNL1        0.1455
     20 C         139.4157  145.3728  162.3325 C.ar    1  UNL1        0.0406
     21 C         140.3264  145.9452  161.2869 C.ar    1  UNL1        0.0403
     22 C         140.8193  145.0789  160.1660 C.ar    1  UNL1        0.1470
     23 C         140.4017  143.6401  160.0907 C.ar    1  UNL1        0.0403
     24 C         139.4911  143.0677  161.1362 C.ar    1  UNL1        0.0406
     25 O         141.7300  145.6513  159.1205 O.3     1  UNL1       -0.4045
     26 C         141.1888  146.0056  157.7672 C.3     1  UNL1        0.5753
     27 F         140.6477  146.3600  156.4139 F       1  UNL1       -0.1328
     28 F         142.5853  146.0565  157.2221 F       1  UNL1       -0.1328
     29 F         139.7923  145.9547  158.3123 F       1  UNL1       -0.1328
@<TRIPOS>BOND
     1     9    10    1
     2    10    11   ar
     3    11    12   ar
     4    12    13   ar
     5    13    14   ar
     6    14     7    1
     7     7     1    1
     8     1     2   ar
     9     2     3   ar
    10     3     4   ar
    11     4    18    1
    12    18    19    1
    13    19    20   ar
    14    20    21   ar
    15    21    22   ar
    16    22    25    1
    17    25    26    1
    18    26    27    1
    19    26    28    1
    20    26    29    1
    21    22    23   ar
    22    23    24   ar
    23     4     5   ar
    24     5     6   ar
    25    14    15   ar
    26    15    10   ar
    27     6     1   ar
    28    24    19   ar
    29     9    16    1
    30     9    17    1
    31     7     8    1
@<TRIPOS>MOLECULE
*****
 29 31 0 0 0
SMALL
GASTEIGER

@<TRIPOS>ATOM
      1 C         140.6374  144.5289  161.2798 C.ar    1  UNL1        0.0496
      2 C         139.5782  145.0799  162.1878 C.ar    1  UNL1        0.0178
      3 C         138.7397  144.1495  163.0134 C.ar    1  UNL1        0.0388
      4 C         138.9605  142.6682  162.9309 C.ar    1  UNL1        0.1454
      5 C         140.0197  142.1172  162.0229 C.ar    1  UNL1        0.0388
      6 C         140.8581  143.0475  161.1974 C.ar    1  UNL1        0.0178
      7 N         141.4758  145.4592  160.4543 N.pl3   1  UNL1       -0.2966
      8 H         142.1132  146.0678  160.8931 H       1  UNL1        0.1537
      9 N         143.3937  144.3096  155.7639 N.pl3   1  UNL1       -0.3413
     10 C         142.3021  144.8875  156.6150 C.ar    1  UNL1        0.1462
     11 C         141.0777  145.4684  155.9720 C.ar    1  UNL1        0.1327
     12 N         139.9861  146.0462  156.8230 N.ar    1  UNL1       -0.2365
     13 C         140.1187  146.0432  158.3171 C.ar    1  UNL1        0.1333
     14 C         141.3431  145.4623  158.9601 C.ar    1  UNL1        0.1529
     15 N         142.4347  144.8844  158.1090 N.ar    1  UNL1       -0.2132
     16 H         143.3066  144.3116  154.7832 H       1  UNL1        0.1438
     17 H         144.1973  143.9283  156.1859 H       1  UNL1        0.1438
     18 O         138.1221  141.7379  163.7564 O.3     1  UNL1       -0.4535
     19 C         138.6496  141.2066  165.0562 C.ar    1  UNL1        0.1455
     20 C         138.1895  139.8718  165.5628 C.ar    1  UNL1        0.0406
     21 C         138.7171  139.3405  166.8626 C.ar    1  UNL1        0.0403
     22 C         139.7046  140.1440  167.6557 C.ar    1  UNL1        0.1470
     23 C         140.1647  141.4788  167.1491 C.ar    1  UNL1        0.0403
     24 C         139.6372  142.0101  165.8493 C.ar    1  UNL1        0.0406
     25 O         140.2321  139.6126  168.9555 O.3     1  UNL1       -0.4045
     26 C         140.3344  140.5158  170.1487 C.3     1  UNL1        0.5753
     27 F         140.4366  141.4190  171.3419 F       1  UNL1       -0.1328
     28 F         138.8597  140.7800  170.0751 F       1  UNL1       -0.1328
     29 F         141.8090  140.2516  170.2223 F       1  UNL1       -0.1328
@<TRIPOS>BOND
     1     9    10    1
     2    10    11   ar
     3    11    12   ar
     4    12    13   ar
     5    13    14   ar
     6    14     7    1
     7     7     1    1
     8     1     2   ar
     9     2     3   ar
    10     3     4   ar
    11     4    18    1
    12    18    19    1
    13    19    20   ar
    14    20    21   ar
    15    21    22   ar
    16    22    25    1
    17    25    26    1
    18    26    27    1
    19    26    28    1
    20    26    29    1
    21    22    23   ar
    22    23    24   ar
    23     4     5   ar
    24     5     6   ar
    25    14    15   ar
    26    15    10   ar
    27     6     1   ar
    28    24    19   ar
    29     9    16    1
    30     9    17    1
    31     7     8    1
@<TRIPOS>MOLECULE
*****
 29 31 0 0 0
SMALL
GASTEIGER

@<TRIPOS>ATOM
      1 C         138.9617  139.4178  167.6386 C.ar    1  UNL1        0.0496
      2 C         137.9529  138.4763  167.0505 C.ar    1  UNL1        0.0178
      3 C         138.1589  137.9218  165.6720 C.ar    1  UNL1        0.0388
      4 C         139.3737  138.3088  164.8817 C.ar    1  UNL1        0.1454
      5 C         140.3825  139.2502  165.4699 C.ar    1  UNL1        0.0388
      6 C         140.1765  139.8047  166.8483 C.ar    1  UNL1        0.0178
      7 N         138.7558  139.9723  169.0171 N.pl3   1  UNL1       -0.2966
      8 H         137.8754  139.8972  169.4514 H       1  UNL1        0.1537
      9 N         143.4878  139.7451  171.1515 N.pl3   1  UNL1       -0.3413
     10 C         142.2571  140.5276  170.8010 C.ar    1  UNL1        0.1462
     11 C         142.1617  141.9791  171.1670 C.ar    1  UNL1        0.1327
     12 N         140.9309  142.7617  170.8165 N.ar    1  UNL1       -0.2365
     13 C         139.7956  142.0928  170.0998 C.ar    1  UNL1        0.1333
     14 C         139.8911  140.6413  169.7337 C.ar    1  UNL1        0.1529
     15 N         141.1218  139.8587  170.0843 N.ar    1  UNL1       -0.2132
     16 H         144.2330  140.1841  171.6219 H       1  UNL1        0.1438
     17 H         143.5505  138.7924  170.9113 H       1  UNL1        0.1438
     18 O         139.5796  137.7543  163.5033 O.3     1  UNL1       -0.4535
     19 C         140.6321  138.3395  162.6090 C.ar    1  UNL1        0.1455
     20 C         141.9930  137.7123  162.5421 C.ar    1  UNL1        0.0406
     21 C         143.0454  138.2975  161.6478 C.ar    1  UNL1        0.0403
     22 C         142.7370  139.5100  160.8203 C.ar    1  UNL1        0.1470
     23 C         141.3760  140.1373  160.8871 C.ar    1  UNL1        0.0403
     24 C         140.3235  139.5520  161.7815 C.ar    1  UNL1        0.0406
     25 O         143.7894  140.0952  159.9260 O.3     1  UNL1       -0.4045
     26 C         144.1677  141.5406  160.0590 C.3     1  UNL1        0.5753
     27 F         144.5459  142.9860  160.1921 F       1  UNL1       -0.1328
     28 F         144.6865  141.2776  161.4416 F       1  UNL1       -0.1328
     29 F         143.6488  141.8036  158.6764 F       1  UNL1       -0.1328
@<TRIPOS>BOND
     1     9    10    1
     2    10    11   ar
     3    11    12   ar
     4    12    13   ar
     5    13    14   ar
     6    14     7    1
     7     7     1    1
     8     1     2   ar
     9     2     3   ar
    10     3     4   ar
    11     4    18    1
    12    18    19    1
    13    19    20   ar
    14    20    21   ar
    15    21    22   ar
    16    22    25    1
    17    25    26    1
    18    26    27    1
    19    26    28    1
    20    26    29    1
    21    22    23   ar
    22    23    24   ar
    23     4     5   ar
    24     5     6   ar
    25    14    15   ar
    26    15    10   ar
    27     6     1   ar
    28    24    19   ar
    29     9    16    1
    30     9    17    1
    31     7     8    1
