@<TRIPOS>MOLECULE
*****
 34 38 0 0 0
SMALL
GASTEIGER

@<TRIPOS>ATOM
      1 C         139.5252  142.5236  158.5466 C.3     1  UNL1        0.1531
      2 C         138.6656  142.4445  159.7733 C.3     1  UNL1        0.1067
      3 N         138.8878  141.3507  160.7754 N.3     1  UNL1       -0.2665
      4 C         138.0281  141.2715  162.0021 C.3     1  UNL1        0.0940
      5 C         138.2503  140.1777  163.0043 C.3     1  UNL1        0.1107
      6 N         139.3320  139.1632  162.7797 N.am    1  UNL1       -0.2763
      7 C         139.5541  138.0694  163.7820 C.2     1  UNL1        0.2318
      8 O         140.6359  137.0548  163.5574 O.2     1  UNL1       -0.2744
      9 C         140.1916  139.2423  161.5531 C.3     1  UNL1        0.1119
     10 C         139.9695  140.3361  160.5509 C.3     1  UNL1        0.1075
     11 C         140.8292  140.4153  159.3242 C.3     1  UNL1        0.1601
     12 O         140.6070  141.5091  158.3221 O.3     1  UNL1       -0.3489
     13 C         137.6504  142.0911  156.2449 C.3     1  UNL1        0.0316
     14 C         138.3657  143.4012  156.3936 C.ar    1  UNL1       -0.0117
     15 C         139.3031  143.6174  157.5444 C.ar    1  UNL1        0.0027
     16 C         140.0185  144.9275  157.6931 C.ar    1  UNL1        0.0001
     17 C         139.7964  146.0212  156.6910 C.ar    1  UNL1        0.0301
     18 C         138.8589  145.8050  155.5401 C.ar    1  UNL1        0.1493
     19 F         138.6369  146.8988  154.5379 F       1  UNL1       -0.2035
     20 C         138.1436  144.4950  155.3914 C.ar    1  UNL1        0.0916
     21 C         137.2062  144.2787  154.2406 C.1     1  UNL1        0.1024
     22 N         136.2688  144.0624  153.0897 N.1     1  UNL1       -0.1908
     23 C         138.6945  137.9902  165.0086 C.3     1  UNL1        0.1327
     24 C         139.0821  138.7442  166.2460 C.ar    1  UNL1        0.0898
     25 C         140.3839  139.4880  166.2941 C.ar    1  UNL1        0.0202
     26 C         140.7716  140.2420  167.5315 C.ar    1  UNL1        0.0420
     27 C         139.8574  140.2524  168.7207 C.ar    1  UNL1        0.1884
     28 N         138.5557  139.5087  168.6726 N.ar    1  UNL1       -0.1286
     29 N         138.1680  138.7546  167.4352 N.ar    1  UNL1       -0.1504
     30 N         140.2451  141.0065  169.9581 N.ar    1  UNL1       -0.1691
     31 C         141.5789  140.9523  170.6421 C.ar    1  UNL1        0.2273
     32 N         141.5251  141.8595  171.8355 N.ar    1  UNL1       -0.1044
     33 N         140.1579  142.4744  171.8891 N.ar    1  UNL1       -0.0222
     34 N         139.3668  141.9472  170.7288 N.ar    1  UNL1       -0.0371
@<TRIPOS>BOND
     1    13    14    1
     2    14    15   ar
     3     1    15    1
     4     1     2    1
     5     2     3    1
     6     3     4    1
     7     4     5    1
     8     5     6    1
     9     6     7   am
    10     7     8    2
    11     7    23    1
    12    23    24    1
    13    24    25   ar
    14    25    26   ar
    15    26    27   ar
    16    27    30    1
    17    30    31   ar
    18    31    32   ar
    19    32    33   ar
    20    33    34   ar
    21    27    28   ar
    22    28    29   ar
    23     6     9    1
    24    10     9    1
    25    10    11    1
    26    11    12    1
    27    15    16   ar
    28    16    17   ar
    29    17    18   ar
    30    18    19    1
    31    18    20   ar
    32    20    21    1
    33    21    22    3
    34    20    14   ar
    35    12     1    1
    36    10     3    1
    37    29    24   ar
    38    34    30   ar
@<TRIPOS>MOLECULE
*****
 34 38 0 0 0
SMALL
GASTEIGER

@<TRIPOS>ATOM
      1 C         142.8706  140.2306  164.9396 C.3     1  UNL1        0.1531
      2 C         141.9875  139.4476  164.0139 C.3     1  UNL1        0.1067
      3 N         142.3114  139.3748  162.5512 N.3     1  UNL1       -0.2665
      4 C         141.4283  138.5917  161.6254 C.3     1  UNL1        0.0940
      5 C         141.7522  138.5190  160.1627 C.3     1  UNL1        0.1107
      6 N         142.9592  139.2294  159.6255 N.am    1  UNL1       -0.2763
      7 C         143.2831  139.1567  158.1627 C.2     1  UNL1        0.2318
      8 O         144.4901  139.8670  157.6256 O.2     1  UNL1       -0.2744
      9 C         143.8423  140.0125  160.5512 C.3     1  UNL1        0.1119
     10 C         143.5184  140.0852  162.0140 C.3     1  UNL1        0.1075
     11 C         144.4015  140.8683  162.9397 C.3     1  UNL1        0.1601
     12 O         144.0776  140.9410  164.4025 O.3     1  UNL1       -0.3489
     13 C         141.4823  142.6471  166.0503 C.3     1  UNL1        0.0316
     14 C         141.8526  141.5116  166.9577 C.ar    1  UNL1       -0.0117
     15 C         142.5467  140.3034  166.4024 C.ar    1  UNL1        0.0027
     16 C         142.9170  139.1679  167.3099 C.ar    1  UNL1        0.0001
     17 C         142.5931  139.2406  168.7727 C.ar    1  UNL1        0.0301
     18 C         141.8990  140.4488  169.3281 C.ar    1  UNL1        0.1493
     19 F         141.5751  140.5215  170.7909 F       1  UNL1       -0.2035
     20 C         141.5287  141.5843  168.4206 C.ar    1  UNL1        0.0916
     21 C         140.8346  142.7925  168.9759 C.1     1  UNL1        0.1024
     22 N         140.1405  144.0007  169.5312 N.1     1  UNL1       -0.1908
     23 C         142.4000  138.3736  157.2370 C.3     1  UNL1        0.1327
     24 C         142.7862  136.9824  156.8302 C.ar    1  UNL1        0.0898
     25 C         142.9862  136.6532  155.3804 C.ar    1  UNL1        0.0202
     26 C         143.3724  135.2621  154.9736 C.ar    1  UNL1        0.0420
     27 C         143.5587  134.2001  156.0165 C.ar    1  UNL1        0.1884
     28 N         143.3588  134.5293  157.4661 N.ar    1  UNL1       -0.1286
     29 N         142.9726  135.9205  157.8731 N.ar    1  UNL1       -0.1504
     30 N         143.9449  132.8090  155.6096 N.ar    1  UNL1       -0.1691
     31 C         143.2598  131.9720  154.5703 C.ar    1  UNL1        0.2273
     32 N         143.9756  130.6562  154.4890 N.ar    1  UNL1       -0.1044
     33 N         145.1031  130.6801  155.4781 N.ar    1  UNL1       -0.0222
     34 N         145.0841  132.0105  156.1706 N.ar    1  UNL1       -0.0371
@<TRIPOS>BOND
     1    13    14    1
     2    14    15   ar
     3     1    15    1
     4     1     2    1
     5     2     3    1
     6     3     4    1
     7     4     5    1
     8     5     6    1
     9     6     7   am
    10     7     8    2
    11     7    23    1
    12    23    24    1
    13    24    25   ar
    14    25    26   ar
    15    26    27   ar
    16    27    30    1
    17    30    31   ar
    18    31    32   ar
    19    32    33   ar
    20    33    34   ar
    21    27    28   ar
    22    28    29   ar
    23     6     9    1
    24    10     9    1
    25    10    11    1
    26    11    12    1
    27    15    16   ar
    28    16    17   ar
    29    17    18   ar
    30    18    19    1
    31    18    20   ar
    32    20    21    1
    33    21    22    3
    34    20    14   ar
    35    12     1    1
    36    10     3    1
    37    29    24   ar
    38    34    30   ar
@<TRIPOS>MOLECULE
*****
 34 38 0 0 0
SMALL
GASTEIGER

@<TRIPOS>ATOM
      1 C         142.3288  142.3751  165.8387 C.3     1  UNL1        0.1531
      2 C         143.2673  141.5802  164.9800 C.3     1  UNL1        0.1067
      3 N         143.4015  141.9000  163.5206 N.3     1  UNL1       -0.2665
      4 C         144.3400  141.1051  162.6619 C.3     1  UNL1        0.0940
      5 C         144.4742  141.4249  161.2025 C.3     1  UNL1        0.1107
      6 N         143.6699  142.5395  160.6019 N.am    1  UNL1       -0.2763
      7 C         143.8042  142.8592  159.1425 C.2     1  UNL1        0.2318
      8 O         142.9999  143.9738  158.5418 O.2     1  UNL1       -0.2744
      9 C         142.7314  143.3343  161.4606 C.3     1  UNL1        0.1119
     10 C         142.5972  143.0146  162.9200 C.3     1  UNL1        0.1075
     11 C         141.6587  143.8094  163.7787 C.3     1  UNL1        0.1601
     12 O         141.5245  143.4897  165.2380 O.3     1  UNL1       -0.3489
     13 C         139.7965  141.1478  166.8787 C.3     1  UNL1        0.0316
     14 C         140.9284  141.4417  167.8181 C.ar    1  UNL1       -0.0117
     15 C         142.1945  142.0553  167.2981 C.ar    1  UNL1        0.0027
     16 C         143.3264  142.3493  168.2375 C.ar    1  UNL1        0.0001
     17 C         143.1922  142.0296  169.6968 C.ar    1  UNL1        0.0301
     18 C         141.9261  141.4159  170.2168 C.ar    1  UNL1        0.1493
     19 F         141.7919  141.0962  171.6762 F       1  UNL1       -0.2035
     20 C         140.7942  141.1220  169.2775 C.ar    1  UNL1        0.0916
     21 C         139.5281  140.5083  169.7975 C.1     1  UNL1        0.1024
     22 N         138.2620  139.8947  170.3174 N.1     1  UNL1       -0.1908
     23 C         144.7427  142.0644  158.2838 C.3     1  UNL1        0.1327
     24 C         144.2855  140.7758  157.6669 C.ar    1  UNL1        0.0898
     25 C         143.0118  140.1329  158.1301 C.ar    1  UNL1        0.0202
     26 C         142.5547  138.8443  157.5132 C.ar    1  UNL1        0.0420
     27 C         143.3712  138.1986  156.4332 C.ar    1  UNL1        0.1884
     28 N         144.6448  138.8415  155.9700 N.ar    1  UNL1       -0.1286
     29 N         145.1020  140.1301  156.5869 N.ar    1  UNL1       -0.1504
     30 N         142.9141  136.9100  155.8163 N.ar    1  UNL1       -0.1691
     31 C         141.4918  136.4532  155.6806 C.ar    1  UNL1        0.2273
     32 N         141.4977  135.1128  155.0072 N.ar    1  UNL1       -0.1044
     33 N         142.9237  134.7412  154.7268 N.ar    1  UNL1       -0.0222
     34 N         143.7990  135.8519  155.2269 N.ar    1  UNL1       -0.0371
@<TRIPOS>BOND
     1    13    14    1
     2    14    15   ar
     3     1    15    1
     4     1     2    1
     5     2     3    1
     6     3     4    1
     7     4     5    1
     8     5     6    1
     9     6     7   am
    10     7     8    2
    11     7    23    1
    12    23    24    1
    13    24    25   ar
    14    25    26   ar
    15    26    27   ar
    16    27    30    1
    17    30    31   ar
    18    31    32   ar
    19    32    33   ar
    20    33    34   ar
    21    27    28   ar
    22    28    29   ar
    23     6     9    1
    24    10     9    1
    25    10    11    1
    26    11    12    1
    27    15    16   ar
    28    16    17   ar
    29    17    18   ar
    30    18    19    1
    31    18    20   ar
    32    20    21    1
    33    21    22    3
    34    20    14   ar
    35    12     1    1
    36    10     3    1
    37    29    24   ar
    38    34    30   ar
@<TRIPOS>MOLECULE
*****
 34 38 0 0 0
SMALL
GASTEIGER

@<TRIPOS>ATOM
      1 C         142.3485  140.9354  165.8331 C.3     1  UNL1        0.1531
      2 C         142.5233  142.0405  164.8341 C.3     1  UNL1        0.1067
      3 N         142.8600  141.7167  163.4087 N.3     1  UNL1       -0.2665
      4 C         143.0349  142.8218  162.4097 C.3     1  UNL1        0.0940
      5 C         143.3717  142.4980  160.9843 C.3     1  UNL1        0.1107
      6 N         143.5337  141.0690  160.5580 N.am    1  UNL1       -0.2763
      7 C         143.8705  140.7452  159.1325 C.2     1  UNL1        0.2318
      8 O         144.0325  139.3163  158.7062 O.2     1  UNL1       -0.2744
      9 C         143.3589  139.9639  161.5570 C.3     1  UNL1        0.1119
     10 C         143.0220  140.2877  162.9824 C.3     1  UNL1        0.1075
     11 C         142.8472  139.1825  163.9814 C.3     1  UNL1        0.1601
     12 O         142.5104  139.5064  165.4067 O.3     1  UNL1       -0.3489
     13 C         139.8429  139.8414  167.0682 C.3     1  UNL1        0.0316
     14 C         140.7589  140.7122  167.8760 C.ar    1  UNL1       -0.0117
     15 C         142.0116  141.2592  167.2585 C.ar    1  UNL1        0.0027
     16 C         142.9276  142.1299  168.0664 C.ar    1  UNL1        0.0001
     17 C         142.5909  142.4538  169.4917 C.ar    1  UNL1        0.0301
     18 C         141.3381  141.9068  170.1093 C.ar    1  UNL1        0.1493
     19 F         141.0013  142.2306  171.5347 F       1  UNL1       -0.2035
     20 C         140.4221  141.0360  169.3015 C.ar    1  UNL1        0.0916
     21 C         139.1693  140.4890  169.9189 C.1     1  UNL1        0.1024
     22 N         137.9165  139.9420  170.5364 N.1     1  UNL1       -0.1908
     23 C         144.0453  141.8504  158.1335 C.3     1  UNL1        0.1327
     24 C         145.2970  141.9263  157.3106 C.ar    1  UNL1        0.0898
     25 C         145.4143  141.1249  156.0479 C.ar    1  UNL1        0.0202
     26 C         146.6660  141.2009  155.2250 C.ar    1  UNL1        0.0420
     27 C         147.8005  142.0782  155.6645 C.ar    1  UNL1        0.1884
     28 N         147.6833  142.8796  156.9270 N.ar    1  UNL1       -0.1286
     29 N         146.4315  142.8036  157.7501 N.ar    1  UNL1       -0.1504
     30 N         149.0522  142.1542  154.8415 N.ar    1  UNL1       -0.1691
     31 C         149.2266  142.9333  153.5717 C.ar    1  UNL1        0.2273
     32 N         150.6316  142.7250  153.0892 N.ar    1  UNL1       -0.1044
     33 N         151.3256  141.8170  154.0609 N.ar    1  UNL1       -0.0222
     34 N         150.3495  141.4642  155.1439 N.ar    1  UNL1       -0.0371
@<TRIPOS>BOND
     1    13    14    1
     2    14    15   ar
     3     1    15    1
     4     1     2    1
     5     2     3    1
     6     3     4    1
     7     4     5    1
     8     5     6    1
     9     6     7   am
    10     7     8    2
    11     7    23    1
    12    23    24    1
    13    24    25   ar
    14    25    26   ar
    15    26    27   ar
    16    27    30    1
    17    30    31   ar
    18    31    32   ar
    19    32    33   ar
    20    33    34   ar
    21    27    28   ar
    22    28    29   ar
    23     6     9    1
    24    10     9    1
    25    10    11    1
    26    11    12    1
    27    15    16   ar
    28    16    17   ar
    29    17    18   ar
    30    18    19    1
    31    18    20   ar
    32    20    21    1
    33    21    22    3
    34    20    14   ar
    35    12     1    1
    36    10     3    1
    37    29    24   ar
    38    34    30   ar
@<TRIPOS>MOLECULE
*****
 34 38 0 0 0
SMALL
GASTEIGER

@<TRIPOS>ATOM
      1 C         140.5311  139.2707  158.2268 C.3     1  UNL1        0.1531
      2 C         140.2177  138.5704  159.5157 C.3     1  UNL1        0.1067
      3 N         141.1438  138.7067  160.6877 N.3     1  UNL1       -0.2665
      4 C         140.8305  138.0064  161.9767 C.3     1  UNL1        0.0940
      5 C         141.7566  138.1427  163.1487 C.3     1  UNL1        0.1107
      6 N         142.9961  138.9793  163.0317 N.am    1  UNL1       -0.2763
      7 C         143.9223  139.1156  164.2038 C.2     1  UNL1        0.2318
      8 O         145.1618  139.9522  164.0869 O.2     1  UNL1       -0.2744
      9 C         143.3095  139.6796  161.7428 C.3     1  UNL1        0.1119
     10 C         142.3834  139.5433  160.5707 C.3     1  UNL1        0.1075
     11 C         142.6967  140.2436  159.2818 C.3     1  UNL1        0.1601
     12 O         141.7706  140.1073  158.1098 O.3     1  UNL1       -0.3489
     13 C         138.5923  141.4679  157.5834 C.3     1  UNL1        0.0316
     14 C         138.6356  140.2330  156.7330 C.ar    1  UNL1       -0.0117
     15 C         139.6049  139.1344  157.0547 C.ar    1  UNL1        0.0027
     16 C         139.6481  137.8995  156.2043 C.ar    1  UNL1        0.0001
     17 C         138.7220  137.7632  155.0323 C.ar    1  UNL1        0.0301
     18 C         137.7526  138.8618  154.7106 C.ar    1  UNL1        0.1493
     19 F         136.8265  138.7255  153.5385 F       1  UNL1       -0.2035
     20 C         137.7094  140.0967  155.5609 C.ar    1  UNL1        0.0916
     21 C         136.7401  141.1953  155.2393 C.1     1  UNL1        0.1024
     22 N         135.7707  142.2938  154.9177 N.1     1  UNL1       -0.1908
     23 C         143.6089  138.4153  165.4927 C.3     1  UNL1        0.1327
     24 C         142.9624  139.1683  166.6174 C.ar    1  UNL1        0.0898
     25 C         142.0309  140.3060  166.3205 C.ar    1  UNL1        0.0202
     26 C         141.3844  141.0590  167.4452 C.ar    1  UNL1        0.0420
     27 C         141.6692  140.6744  168.8668 C.ar    1  UNL1        0.1884
     28 N         142.6007  139.5367  169.1637 N.ar    1  UNL1       -0.1286
     29 N         143.2473  138.7837  168.0390 N.ar    1  UNL1       -0.1504
     30 N         141.0227  141.4274  169.9915 N.ar    1  UNL1       -0.1691
     31 C         139.9667  142.4837  169.8531 C.ar    1  UNL1        0.2273
     32 N         139.6100  142.9655  171.2282 N.ar    1  UNL1       -0.1044
     33 N         140.4455  142.2068  172.2164 N.ar    1  UNL1       -0.0222
     34 N         141.3186  141.2563  171.4521 N.ar    1  UNL1       -0.0371
@<TRIPOS>BOND
     1    13    14    1
     2    14    15   ar
     3     1    15    1
     4     1     2    1
     5     2     3    1
     6     3     4    1
     7     4     5    1
     8     5     6    1
     9     6     7   am
    10     7     8    2
    11     7    23    1
    12    23    24    1
    13    24    25   ar
    14    25    26   ar
    15    26    27   ar
    16    27    30    1
    17    30    31   ar
    18    31    32   ar
    19    32    33   ar
    20    33    34   ar
    21    27    28   ar
    22    28    29   ar
    23     6     9    1
    24    10     9    1
    25    10    11    1
    26    11    12    1
    27    15    16   ar
    28    16    17   ar
    29    17    18   ar
    30    18    19    1
    31    18    20   ar
    32    20    21    1
    33    21    22    3
    34    20    14   ar
    35    12     1    1
    36    10     3    1
    37    29    24   ar
    38    34    30   ar
@<TRIPOS>MOLECULE
*****
 34 38 0 0 0
SMALL
GASTEIGER

@<TRIPOS>ATOM
      1 C         142.4241  140.5800  164.2880 C.3     1  UNL1        0.1531
      2 C         141.5421  139.7416  163.4110 C.3     1  UNL1        0.1067
      3 N         141.9036  139.5255  161.9713 N.3     1  UNL1       -0.2665
      4 C         141.0216  138.6871  161.0943 C.3     1  UNL1        0.0940
      5 C         141.3832  138.4709  159.6546 C.3     1  UNL1        0.1107
      6 N         142.6266  139.0932  159.0920 N.am    1  UNL1       -0.2763
      7 C         142.9882  138.8770  157.6523 C.2     1  UNL1        0.2318
      8 O         144.2316  139.4993  157.0897 O.2     1  UNL1       -0.2744
      9 C         143.5086  139.9316  159.9690 C.3     1  UNL1        0.1119
     10 C         143.1471  140.1478  161.4087 C.3     1  UNL1        0.1075
     11 C         144.0291  140.9861  162.2857 C.3     1  UNL1        0.1601
     12 O         143.6675  141.2023  163.7254 O.3     1  UNL1       -0.3489
     13 C         143.3368  138.6261  166.3735 C.3     1  UNL1        0.0316
     14 C         142.5189  139.8193  166.7704 C.ar    1  UNL1       -0.0117
     15 C         142.0625  140.7962  165.7277 C.ar    1  UNL1        0.0027
     16 C         141.2447  141.9893  166.1246 C.ar    1  UNL1        0.0001
     17 C         140.8832  142.2055  167.5642 C.ar    1  UNL1        0.0301
     18 C         141.3395  141.2286  168.6070 C.ar    1  UNL1        0.1493
     19 F         140.9780  141.4448  170.0466 F       1  UNL1       -0.2035
     20 C         142.1574  140.0354  168.2101 C.ar    1  UNL1        0.0916
     21 C         142.6138  139.0585  169.2528 C.1     1  UNL1        0.1024
     22 N         143.0701  138.0816  170.2955 N.1     1  UNL1       -0.1908
     23 C         142.1062  138.0386  156.7753 C.3     1  UNL1        0.1327
     24 C         142.5287  136.6507  156.3946 C.ar    1  UNL1        0.0898
     25 C         142.3156  136.1596  154.9933 C.ar    1  UNL1        0.0202
     26 C         142.7382  134.7716  154.6126 C.ar    1  UNL1        0.0420
     27 C         143.3737  133.8747  155.6331 C.ar    1  UNL1        0.1884
     28 N         143.5868  134.3656  157.0344 N.ar    1  UNL1       -0.1286
     29 N         143.1643  135.7537  157.4151 N.ar    1  UNL1       -0.1504
     30 N         143.7962  132.4867  155.2524 N.ar    1  UNL1       -0.1691
     31 C         144.7239  131.6024  156.0319 C.ar    1  UNL1        0.2273
     32 N         144.8663  130.3084  155.2865 N.ar    1  UNL1       -0.1044
     33 N         144.0266  130.3930  154.0464 N.ar    1  UNL1       -0.0222
     34 N         143.3653  131.7392  154.0254 N.ar    1  UNL1       -0.0371
@<TRIPOS>BOND
     1    13    14    1
     2    14    15   ar
     3     1    15    1
     4     1     2    1
     5     2     3    1
     6     3     4    1
     7     4     5    1
     8     5     6    1
     9     6     7   am
    10     7     8    2
    11     7    23    1
    12    23    24    1
    13    24    25   ar
    14    25    26   ar
    15    26    27   ar
    16    27    30    1
    17    30    31   ar
    18    31    32   ar
    19    32    33   ar
    20    33    34   ar
    21    27    28   ar
    22    28    29   ar
    23     6     9    1
    24    10     9    1
    25    10    11    1
    26    11    12    1
    27    15    16   ar
    28    16    17   ar
    29    17    18   ar
    30    18    19    1
    31    18    20   ar
    32    20    21    1
    33    21    22    3
    34    20    14   ar
    35    12     1    1
    36    10     3    1
    37    29    24   ar
    38    34    30   ar
@<TRIPOS>MOLECULE
*****
 34 38 0 0 0
SMALL
GASTEIGER

@<TRIPOS>ATOM
      1 C         140.7442  139.6093  164.5587 C.3     1  UNL1        0.1531
      2 C         140.5804  140.6662  163.5072 C.3     1  UNL1        0.1067
      3 N         140.3352  140.2732  162.0805 N.3     1  UNL1       -0.2665
      4 C         140.1714  141.3302  161.0288 C.3     1  UNL1        0.0940
      5 C         139.9262  140.9371  159.6022 C.3     1  UNL1        0.1107
      6 N         139.8448  139.4870  159.2272 N.am    1  UNL1       -0.2763
      7 C         139.5996  139.0939  157.8005 C.2     1  UNL1        0.2318
      8 O         139.5182  137.6439  157.4254 O.2     1  UNL1       -0.2744
      9 C         140.0086  138.4300  160.2788 C.3     1  UNL1        0.1119
     10 C         140.2538  138.8231  161.7055 C.3     1  UNL1        0.1075
     11 C         140.4176  137.7661  162.7571 C.3     1  UNL1        0.1601
     12 O         140.6628  138.1592  164.1837 O.3     1  UNL1       -0.3489
     13 C         138.5749  139.2681  166.6027 C.3     1  UNL1        0.0316
     14 C         139.9048  139.8317  167.0074 C.ar    1  UNL1       -0.0117
     15 C         140.9894  140.0023  165.9855 C.ar    1  UNL1        0.0027
     16 C         142.3193  140.5659  166.3901 C.ar    1  UNL1        0.0001
     17 C         142.5645  140.9590  167.8168 C.ar    1  UNL1        0.0301
     18 C         141.4798  140.7884  168.8388 C.ar    1  UNL1        0.1493
     19 F         141.7251  141.1815  170.2654 F       1  UNL1       -0.2035
     20 C         140.1500  140.2248  168.4341 C.ar    1  UNL1        0.0916
     21 C         139.0653  140.0542  169.4561 C.1     1  UNL1        0.1024
     22 N         137.9807  139.8837  170.4780 N.1     1  UNL1       -0.1908
     23 C         139.4358  140.1509  156.7489 C.3     1  UNL1        0.1327
     24 C         138.0737  140.4602  156.2022 C.ar    1  UNL1        0.0898
     25 C         137.5636  141.8708  156.2131 C.ar    1  UNL1        0.0202
     26 C         136.2015  142.1801  155.6664 C.ar    1  UNL1        0.0420
     27 C         135.3493  141.0788  155.1088 C.ar    1  UNL1        0.1884
     28 N         135.8593  139.6682  155.0979 N.ar    1  UNL1       -0.1286
     29 N         137.2215  139.3589  155.6446 N.ar    1  UNL1       -0.1504
     30 N         133.9872  141.3881  154.5621 N.ar    1  UNL1       -0.1691
     31 C         132.7036  141.3827  155.3382 C.ar    1  UNL1        0.2273
     32 N         131.5925  141.7484  154.3990 N.ar    1  UNL1       -0.1044
     33 N         132.1895  141.9797  153.0425 N.ar    1  UNL1       -0.0222
     34 N         133.6695  141.7570  153.1433 N.ar    1  UNL1       -0.0371
@<TRIPOS>BOND
     1    13    14    1
     2    14    15   ar
     3     1    15    1
     4     1     2    1
     5     2     3    1
     6     3     4    1
     7     4     5    1
     8     5     6    1
     9     6     7   am
    10     7     8    2
    11     7    23    1
    12    23    24    1
    13    24    25   ar
    14    25    26   ar
    15    26    27   ar
    16    27    30    1
    17    30    31   ar
    18    31    32   ar
    19    32    33   ar
    20    33    34   ar
    21    27    28   ar
    22    28    29   ar
    23     6     9    1
    24    10     9    1
    25    10    11    1
    26    11    12    1
    27    15    16   ar
    28    16    17   ar
    29    17    18   ar
    30    18    19    1
    31    18    20   ar
    32    20    21    1
    33    21    22    3
    34    20    14   ar
    35    12     1    1
    36    10     3    1
    37    29    24   ar
    38    34    30   ar
@<TRIPOS>MOLECULE
*****
 34 38 0 0 0
SMALL
GASTEIGER

@<TRIPOS>ATOM
      1 C         140.7983  140.3558  165.3915 C.3     1  UNL1        0.1531
      2 C         141.8537  140.2667  164.3294 C.3     1  UNL1        0.1067
      3 N         141.4644  139.9974  162.9060 N.3     1  UNL1       -0.2665
      4 C         142.5198  139.9083  161.8438 C.3     1  UNL1        0.0940
      5 C         142.1306  139.6391  160.4205 C.3     1  UNL1        0.1107
      6 N         140.6859  139.4589  160.0593 N.am    1  UNL1       -0.2763
      7 C         140.2967  139.1896  158.6359 C.2     1  UNL1        0.2318
      8 O         138.8520  139.0094  158.2746 O.2     1  UNL1       -0.2744
      9 C         139.6305  139.5480  161.1214 C.3     1  UNL1        0.1119
     10 C         140.0197  139.8172  162.5448 C.3     1  UNL1        0.1075
     11 C         138.9644  139.9063  163.6069 C.3     1  UNL1        0.1601
     12 O         139.3536  140.1756  165.0303 O.3     1  UNL1       -0.3489
     13 C         139.9293  142.8965  166.7293 C.3     1  UNL1        0.0316
     14 C         140.7530  141.8954  167.4838 C.ar    1  UNL1       -0.0117
     15 C         141.1875  140.6251  166.8149 C.ar    1  UNL1        0.0027
     16 C         142.0113  139.6240  167.5694 C.ar    1  UNL1        0.0001
     17 C         142.4005  139.8932  168.9927 C.ar    1  UNL1        0.0301
     18 C         141.9660  141.1636  169.6617 C.ar    1  UNL1        0.1493
     19 F         142.3553  141.4328  171.0850 F       1  UNL1       -0.2035
     20 C         141.1423  142.1647  168.9072 C.ar    1  UNL1        0.0916
     21 C         140.7078  143.4350  169.5760 C.1     1  UNL1        0.1024
     22 N         140.2733  144.7054  170.2449 N.1     1  UNL1       -0.1908
     23 C         141.3521  139.1005  157.5737 C.3     1  UNL1        0.1327
     24 C         141.7669  137.7618  157.0391 C.ar    1  UNL1        0.0898
     25 C         140.9466  137.0913  155.9772 C.ar    1  UNL1        0.0202
     26 C         141.3614  135.7526  155.4426 C.ar    1  UNL1        0.0420
     27 C         142.5965  135.0845  155.9698 C.ar    1  UNL1        0.1884
     28 N         143.4169  135.7549  157.0316 N.ar    1  UNL1       -0.1286
     29 N         143.0020  137.0937  157.5663 N.ar    1  UNL1       -0.1504
     30 N         143.0114  133.7458  155.4352 N.ar    1  UNL1       -0.1691
     31 C         143.9852  132.8030  156.0777 C.ar    1  UNL1        0.2273
     32 N         144.1009  131.5893  155.2037 N.ar    1  UNL1       -0.1044
     33 N         143.1985  131.7821  154.0210 N.ar    1  UNL1       -0.0222
     34 N         142.5252  133.1148  154.1641 N.ar    1  UNL1       -0.0371
@<TRIPOS>BOND
     1    13    14    1
     2    14    15   ar
     3     1    15    1
     4     1     2    1
     5     2     3    1
     6     3     4    1
     7     4     5    1
     8     5     6    1
     9     6     7   am
    10     7     8    2
    11     7    23    1
    12    23    24    1
    13    24    25   ar
    14    25    26   ar
    15    26    27   ar
    16    27    30    1
    17    30    31   ar
    18    31    32   ar
    19    32    33   ar
    20    33    34   ar
    21    27    28   ar
    22    28    29   ar
    23     6     9    1
    24    10     9    1
    25    10    11    1
    26    11    12    1
    27    15    16   ar
    28    16    17   ar
    29    17    18   ar
    30    18    19    1
    31    18    20   ar
    32    20    21    1
    33    21    22    3
    34    20    14   ar
    35    12     1    1
    36    10     3    1
    37    29    24   ar
    38    34    30   ar
@<TRIPOS>MOLECULE
*****
 34 38 0 0 0
SMALL
GASTEIGER

@<TRIPOS>ATOM
      1 C         142.1505  137.5774  157.2117 C.3     1  UNL1        0.1531
      2 C         140.9367  137.6989  158.0844 C.3     1  UNL1        0.1067
      3 N         140.9400  138.6480  159.2459 N.3     1  UNL1       -0.2665
      4 C         139.7261  138.7696  160.1187 C.3     1  UNL1        0.0940
      5 C         139.7294  139.7187  161.2802 C.3     1  UNL1        0.1107
      6 N         140.9467  140.5463  161.5690 N.am    1  UNL1       -0.2763
      7 C         140.9500  141.4954  162.7306 C.2     1  UNL1        0.2318
      8 O         142.1673  142.3230  163.0194 O.2     1  UNL1       -0.2744
      9 C         142.1606  140.4247  160.6963 C.3     1  UNL1        0.1119
     10 C         142.1573  139.4756  159.5347 C.3     1  UNL1        0.1075
     11 C         143.3712  139.3541  158.6620 C.3     1  UNL1        0.1601
     12 O         143.3678  138.4050  157.5005 O.3     1  UNL1       -0.3489
     13 C         143.3243  134.8331  157.5136 C.3     1  UNL1        0.0316
     14 C         142.7341  135.2561  156.2011 C.ar    1  UNL1       -0.0117
     15 C         142.1472  136.6282  156.0501 C.ar    1  UNL1        0.0027
     16 C         141.5570  137.0513  154.7376 C.ar    1  UNL1        0.0001
     17 C         141.5537  136.1022  153.5761 C.ar    1  UNL1        0.0301
     18 C         142.1406  134.7300  153.7270 C.ar    1  UNL1        0.1493
     19 F         142.1372  133.7810  152.5655 F       1  UNL1       -0.2035
     20 C         142.7308  134.3070  155.0395 C.ar    1  UNL1        0.0916
     21 C         143.3176  132.9349  155.1905 C.1     1  UNL1        0.1024
     22 N         143.9045  131.5628  155.3414 N.1     1  UNL1       -0.1908
     23 C         139.7361  141.6169  163.6033 C.3     1  UNL1        0.1327
     24 C         139.8822  141.6123  165.0961 C.ar    1  UNL1        0.0898
     25 C         139.5643  140.3716  165.8770 C.ar    1  UNL1        0.0202
     26 C         139.7104  140.3670  167.3698 C.ar    1  UNL1        0.0420
     27 C         140.1744  141.6030  168.0819 C.ar    1  UNL1        0.1884
     28 N         140.4923  142.8436  167.3011 N.ar    1  UNL1       -0.1286
     29 N         140.3462  142.8483  165.8081 N.ar    1  UNL1       -0.1504
     30 N         140.3204  141.5984  169.5747 N.ar    1  UNL1       -0.1691
     31 C         140.6957  140.4176  170.4202 C.ar    1  UNL1        0.2273
     32 N         140.7241  140.8632  171.8523 N.ar    1  UNL1       -0.1044
     33 N         140.3664  142.3194  171.8918 N.ar    1  UNL1       -0.0222
     34 N         140.1169  142.7738  170.4842 N.ar    1  UNL1       -0.0371
@<TRIPOS>BOND
     1    13    14    1
     2    14    15   ar
     3     1    15    1
     4     1     2    1
     5     2     3    1
     6     3     4    1
     7     4     5    1
     8     5     6    1
     9     6     7   am
    10     7     8    2
    11     7    23    1
    12    23    24    1
    13    24    25   ar
    14    25    26   ar
    15    26    27   ar
    16    27    30    1
    17    30    31   ar
    18    31    32   ar
    19    32    33   ar
    20    33    34   ar
    21    27    28   ar
    22    28    29   ar
    23     6     9    1
    24    10     9    1
    25    10    11    1
    26    11    12    1
    27    15    16   ar
    28    16    17   ar
    29    17    18   ar
    30    18    19    1
    31    18    20   ar
    32    20    21    1
    33    21    22    3
    34    20    14   ar
    35    12     1    1
    36    10     3    1
    37    29    24   ar
    38    34    30   ar
