@<TRIPOS>MOLECULE
*****
 29 33 0 0 0
SMALL
GASTEIGER

@<TRIPOS>ATOM
      1 C         137.8925  139.7110  169.9620 C.3     1  UNL1        0.1726
      2 O         137.6899  139.0784  168.6170 O.3     1  UNL1       -0.4792
      3 C         138.7248  139.2485  167.5447 C.ar    1  UNL1        0.1362
      4 C         138.5223  138.6160  166.1998 C.ar    1  UNL1        0.0366
      5 C         139.5572  138.7861  165.1274 C.ar    1  UNL1        0.0032
      6 C         140.7947  139.5888  165.3999 C.ar    1  UNL1        0.0029
      7 C         140.9973  140.2214  166.7449 C.ar    1  UNL1        0.0007
      8 C         139.9623  140.0512  167.8172 C.ar    1  UNL1        0.0357
      9 C         140.1649  140.6838  169.1622 C.3     1  UNL1        0.1582
     10 C         141.2811  140.9396  168.1933 C.3     1  UNL1        0.2351
     11 O         142.3095  141.7856  168.8838 O.2     1  UNL1       -0.4478
     12 C         141.8290  142.0526  170.2794 C.2     1  UNL1        0.2770
     13 N         142.5476  142.8589  171.3202 N.pl3   1  UNL1       -0.3133
     14 N         140.5035  141.3716  170.4515 N.2     1  UNL1       -0.2202
     15 C         139.1300  140.5137  170.2345 C.3     1  UNL1        0.1174
     16 C         139.0734  140.3372  169.8593 C.3     1  UNL1        0.1502
     17 O         139.1329  140.5227  170.2537 O.3     1  UNL1       -0.3532
     18 C         139.0734  140.3372  169.8593 C.3     1  UNL1        0.1502
     19 H         143.4179  143.2689  171.1111 H       1  UNL1        0.1466
     20 H         142.1491  142.9781  172.2125 H       1  UNL1        0.1466
     21 C         141.8296  139.7589  164.3276 C.ar    1  UNL1        0.0384
     22 C         141.6695  140.8348  163.2946 C.ar    1  UNL1        0.1022
     23 N         142.7044  141.0049  162.2222 N.ar    1  UNL1       -0.2224
     24 C         143.8994  140.0992  162.1828 C.ar    1  UNL1        0.1989
     25 N         144.0596  139.0234  163.2156 N.ar    1  UNL1       -0.2224
     26 C         143.0246  138.8532  164.2881 C.ar    1  UNL1        0.1022
     27 C         136.8575  139.5409  171.0344 C.3     1  UNL1        0.0438
     28 C         135.4285  137.9241  172.4815 C.3     1  UNL1        0.0001
     29 C         136.1728  138.2183  171.2128 C.3     1  UNL1        0.0037
@<TRIPOS>BOND
     1    28    29    1
     2    29    27    1
     3    27     1    1
     4     1     2    1
     5     2     3    1
     6     3     4   ar
     7     4     5   ar
     8     5     6   ar
     9     6    21    1
    10    21    22   ar
    11    22    23   ar
    12    23    24   ar
    13    24    25   ar
    14    25    26   ar
    15     6     7   ar
    16     7     8   ar
    17     8     9    1
    18     9    10    1
    19    10    11    1
    20    11    12    1
    21    12    13    1
    22    12    14    2
    23     9    15    1
    24    15    16    1
    25    16    17    1
    26    17    18    1
    27    15     1    1
    28     8     3   ar
    29    14     9    1
    30    18    15    1
    31    26    21   ar
    32    13    19    1
    33    13    20    1
@<TRIPOS>MOLECULE
*****
 29 33 0 0 0
SMALL
GASTEIGER

@<TRIPOS>ATOM
      1 C         141.1594  140.8694  168.9472 C.3     1  UNL1        0.1726
      2 O         141.7935  141.8254  167.9809 O.3     1  UNL1       -0.4792
      3 C         141.2634  141.9401  166.5824 C.ar    1  UNL1        0.1362
      4 C         141.8975  142.8962  165.6160 C.ar    1  UNL1        0.0366
      5 C         141.3674  143.0109  164.2175 C.ar    1  UNL1        0.0032
      6 C         140.2032  142.1695  163.7854 C.ar    1  UNL1        0.0029
      7 C         139.5691  141.2135  164.7517 C.ar    1  UNL1        0.0007
      8 C         140.0992  141.0988  166.1503 C.ar    1  UNL1        0.0357
      9 C         139.4652  140.1428  167.1167 C.3     1  UNL1        0.1582
     10 C         138.8294  140.1483  165.7580 C.3     1  UNL1        0.2351
     11 O         137.7035  139.1571  165.7690 O.2     1  UNL1       -0.4478
     12 C         137.6435  138.5389  167.1344 C.2     1  UNL1        0.2770
     13 N         136.6664  137.4949  167.5873 N.pl3   1  UNL1       -0.3133
     14 N         138.7323  139.1481  167.9673 N.2     1  UNL1       -0.2202
     15 C         139.9952  140.0280  168.5151 C.3     1  UNL1        0.1174
     16 C         140.1722  140.2948  168.2455 C.3     1  UNL1        0.1502
     17 O         139.9862  140.0144  168.5289 O.3     1  UNL1       -0.3532
     18 C         140.1722  140.2948  168.2455 C.3     1  UNL1        0.1502
     19 H         135.9843  137.1555  166.9637 H       1  UNL1        0.1466
     20 H         136.7070  137.1491  168.5082 H       1  UNL1        0.1466
     21 C         139.6731  142.2843  162.3869 C.ar    1  UNL1        0.0384
     22 C         138.2741  142.7724  162.1527 C.ar    1  UNL1        0.1022
     23 N         137.7440  142.8871  160.7543 N.ar    1  UNL1       -0.2224
     24 C         138.6128  142.5137  159.5899 C.ar    1  UNL1        0.1989
     25 N         140.0117  142.0256  159.8240 N.ar    1  UNL1       -0.2224
     26 C         140.5419  141.9109  161.2225 C.ar    1  UNL1        0.1022
     27 C         141.6896  140.7547  170.3458 C.3     1  UNL1        0.0438
     28 C         142.8675  138.4428  170.2128 C.3     1  UNL1        0.0001
     29 C         142.8779  139.8841  170.6284 C.3     1  UNL1        0.0037
@<TRIPOS>BOND
     1    28    29    1
     2    29    27    1
     3    27     1    1
     4     1     2    1
     5     2     3    1
     6     3     4   ar
     7     4     5   ar
     8     5     6   ar
     9     6    21    1
    10    21    22   ar
    11    22    23   ar
    12    23    24   ar
    13    24    25   ar
    14    25    26   ar
    15     6     7   ar
    16     7     8   ar
    17     8     9    1
    18     9    10    1
    19    10    11    1
    20    11    12    1
    21    12    13    1
    22    12    14    2
    23     9    15    1
    24    15    16    1
    25    16    17    1
    26    17    18    1
    27    15     1    1
    28     8     3   ar
    29    14     9    1
    30    18    15    1
    31    26    21   ar
    32    13    19    1
    33    13    20    1
@<TRIPOS>MOLECULE
*****
 29 33 0 0 0
SMALL
GASTEIGER

@<TRIPOS>ATOM
      1 C         140.9174  141.4803  168.6054 C.3     1  UNL1        0.1726
      2 O         141.4344  142.3856  167.5270 O.3     1  UNL1       -0.4792
      3 C         140.8969  142.2725  166.1312 C.ar    1  UNL1        0.1362
      4 C         141.4139  143.1778  165.0528 C.ar    1  UNL1        0.0366
      5 C         140.8765  143.0647  163.6570 C.ar    1  UNL1        0.0032
      6 C         139.8219  142.0462  163.3396 C.ar    1  UNL1        0.0029
      7 C         139.3049  141.1409  164.4180 C.ar    1  UNL1        0.0007
      8 C         139.8424  141.2541  165.8139 C.ar    1  UNL1        0.0357
      9 C         139.3254  140.3487  166.8923 C.3     1  UNL1        0.1582
     10 C         138.6960  140.1201  165.5500 C.3     1  UNL1        0.2351
     11 O         137.6967  139.0101  165.6897 O.2     1  UNL1       -0.4478
     12 C         137.7085  138.5527  167.1182 C.2     1  UNL1        0.2770
     13 N         136.8623  137.4599  167.7011 N.pl3   1  UNL1       -0.3133
     14 N         138.7151  139.3800  167.8615 N.2     1  UNL1       -0.2202
     15 C         139.8629  140.4618  168.2881 C.3     1  UNL1        0.1174
     16 C         140.0071  140.7144  167.9872 C.3     1  UNL1        0.1502
     17 O         139.8555  140.4489  168.3035 O.3     1  UNL1       -0.3532
     18 C         140.0071  140.7144  167.9872 C.3     1  UNL1        0.1502
     19 H         136.2269  136.9714  167.1294 H       1  UNL1        0.1466
     20 H         136.9424  137.2312  168.6553 H       1  UNL1        0.1466
     21 C         139.2844  141.9331  161.9438 C.ar    1  UNL1        0.0384
     22 C         138.8376  140.6013  161.4177 C.ar    1  UNL1        0.1022
     23 N         138.3002  140.4882  160.0219 N.ar    1  UNL1       -0.2224
     24 C         138.2095  141.7069  159.1521 C.ar    1  UNL1        0.1989
     25 N         138.6562  143.0387  159.6781 N.ar    1  UNL1       -0.2224
     26 C         139.1937  143.1518  161.0739 C.ar    1  UNL1        0.1022
     27 C         141.4549  141.5934  170.0013 C.3     1  UNL1        0.0438
     28 C         143.9229  142.3991  169.9019 C.3     1  UNL1        0.0001
     29 C         142.4999  142.6206  170.3216 C.3     1  UNL1        0.0037
@<TRIPOS>BOND
     1    28    29    1
     2    29    27    1
     3    27     1    1
     4     1     2    1
     5     2     3    1
     6     3     4   ar
     7     4     5   ar
     8     5     6   ar
     9     6    21    1
    10    21    22   ar
    11    22    23   ar
    12    23    24   ar
    13    24    25   ar
    14    25    26   ar
    15     6     7   ar
    16     7     8   ar
    17     8     9    1
    18     9    10    1
    19    10    11    1
    20    11    12    1
    21    12    13    1
    22    12    14    2
    23     9    15    1
    24    15    16    1
    25    16    17    1
    26    17    18    1
    27    15     1    1
    28     8     3   ar
    29    14     9    1
    30    18    15    1
    31    26    21   ar
    32    13    19    1
    33    13    20    1
@<TRIPOS>MOLECULE
*****
 29 33 0 0 0
SMALL
GASTEIGER

@<TRIPOS>ATOM
      1 C         140.5906  141.2351  169.1846 C.3     1  UNL1        0.1726
      2 O         141.7834  141.6189  168.3601 O.3     1  UNL1       -0.4792
      3 C         141.9829  141.0135  167.0023 C.ar    1  UNL1        0.1362
      4 C         143.1757  141.3973  166.1778 C.ar    1  UNL1        0.0366
      5 C         143.3751  140.7918  164.8200 C.ar    1  UNL1        0.0032
      6 C         142.3818  139.8024  164.2868 C.ar    1  UNL1        0.0029
      7 C         141.1890  139.4185  165.1113 C.ar    1  UNL1        0.0007
      8 C         140.9895  140.0241  166.4691 C.ar    1  UNL1        0.0357
      9 C         139.7967  139.6402  167.2937 C.3     1  UNL1        0.1582
     10 C         139.8631  138.9551  165.9608 C.3     1  UNL1        0.2351
     11 O         138.6700  138.0536  165.8431 O.2     1  UNL1       -0.4478
     12 C         137.8662  138.1816  167.1030 C.2     1  UNL1        0.2770
     13 N         136.5901  137.4564  167.4122 N.pl3   1  UNL1       -0.3133
     14 N         138.5625  139.1622  167.9996 N.2     1  UNL1       -0.2202
     15 C         139.5973  140.2457  168.6514 C.3     1  UNL1        0.1174
     16 C         139.9301  140.3528  168.4214 C.3     1  UNL1        0.1502
     17 O         139.5803  140.2402  168.6632 O.3     1  UNL1       -0.3532
     18 C         139.9301  140.3528  168.4214 C.3     1  UNL1        0.1502
     19 H         136.2091  136.8290  166.7561 H       1  UNL1        0.1466
     20 H         136.1335  137.6078  168.2712 H       1  UNL1        0.1466
     21 C         142.5812  139.1969  162.9290 C.ar    1  UNL1        0.0384
     22 C         143.8249  139.5011  162.1475 C.ar    1  UNL1        0.1022
     23 N         144.0244  138.8956  160.7897 N.ar    1  UNL1       -0.2224
     24 C         142.9802  137.9859  160.2134 C.ar    1  UNL1        0.1989
     25 N         141.7366  137.6817  160.9949 N.ar    1  UNL1       -0.2224
     26 C         141.5371  138.2872  162.3527 C.ar    1  UNL1        0.1022
     27 C         140.3912  141.8406  170.5424 C.3     1  UNL1        0.0438
     28 C         140.2895  144.3730  169.9707 C.3     1  UNL1        0.0001
     29 C         139.7232  143.1769  170.6769 C.3     1  UNL1        0.0037
@<TRIPOS>BOND
     1    28    29    1
     2    29    27    1
     3    27     1    1
     4     1     2    1
     5     2     3    1
     6     3     4   ar
     7     4     5   ar
     8     5     6   ar
     9     6    21    1
    10    21    22   ar
    11    22    23   ar
    12    23    24   ar
    13    24    25   ar
    14    25    26   ar
    15     6     7   ar
    16     7     8   ar
    17     8     9    1
    18     9    10    1
    19    10    11    1
    20    11    12    1
    21    12    13    1
    22    12    14    2
    23     9    15    1
    24    15    16    1
    25    16    17    1
    26    17    18    1
    27    15     1    1
    28     8     3   ar
    29    14     9    1
    30    18    15    1
    31    26    21   ar
    32    13    19    1
    33    13    20    1
@<TRIPOS>MOLECULE
*****
 29 33 0 0 0
SMALL
GASTEIGER

@<TRIPOS>ATOM
      1 C         138.7387  139.8638  163.0545 C.3     1  UNL1        0.1726
      2 O         139.8461  140.8753  163.0753 O.3     1  UNL1       -0.4792
      3 C         140.4487  141.3009  164.3813 C.ar    1  UNL1        0.1362
      4 C         141.5562  142.3124  164.4020 C.ar    1  UNL1        0.0366
      5 C         142.1588  142.7380  165.7080 C.ar    1  UNL1        0.0032
      6 C         141.6540  142.1521  166.9933 C.ar    1  UNL1        0.0029
      7 C         140.5466  141.1406  166.9726 C.ar    1  UNL1        0.0007
      8 C         139.9439  140.7150  165.6665 C.ar    1  UNL1        0.0357
      9 C         138.8365  139.7035  165.6457 C.3     1  UNL1        0.1582
     10 C         139.3385  140.0304  167.0210 C.3     1  UNL1        0.2351
     11 O         138.5532  139.2167  168.0066 O.2     1  UNL1       -0.4478
     12 C         137.5659  138.3870  167.2406 C.2     1  UNL1        0.2770
     13 N         136.5772  137.4254  167.8302 N.pl3   1  UNL1       -0.3133
     14 N         137.7410  138.6879  165.7815 N.2     1  UNL1       -0.2202
     15 C         138.2338  139.2779  164.3398 C.3     1  UNL1        0.1174
     16 C         138.5428  139.5601  164.3455 C.3     1  UNL1        0.1502
     17 O         138.2180  139.2635  164.3395 O.3     1  UNL1       -0.3532
     18 C         138.5428  139.5601  164.3455 C.3     1  UNL1        0.1502
     19 H         136.5381  137.2956  168.8053 H       1  UNL1        0.1466
     20 H         135.9674  136.9240  167.2420 H       1  UNL1        0.1466
     21 C         142.2566  142.5777  168.2993 C.ar    1  UNL1        0.0384
     22 C         143.7329  142.4372  168.5253 C.ar    1  UNL1        0.1022
     23 N         144.3355  142.8628  169.8313 N.ar    1  UNL1       -0.2224
     24 C         143.4620  143.4290  170.9113 C.ar    1  UNL1        0.1989
     25 N         141.9858  143.5695  170.6854 N.ar    1  UNL1       -0.2224
     26 C         141.3831  143.1439  169.3793 C.ar    1  UNL1        0.1022
     27 C         138.1360  139.4382  161.7484 C.3     1  UNL1        0.0438
     28 C         140.1771  138.3920  160.5280 C.3     1  UNL1        0.0001
     29 C         138.9990  139.3205  160.5272 C.3     1  UNL1        0.0037
@<TRIPOS>BOND
     1    28    29    1
     2    29    27    1
     3    27     1    1
     4     1     2    1
     5     2     3    1
     6     3     4   ar
     7     4     5   ar
     8     5     6   ar
     9     6    21    1
    10    21    22   ar
    11    22    23   ar
    12    23    24   ar
    13    24    25   ar
    14    25    26   ar
    15     6     7   ar
    16     7     8   ar
    17     8     9    1
    18     9    10    1
    19    10    11    1
    20    11    12    1
    21    12    13    1
    22    12    14    2
    23     9    15    1
    24    15    16    1
    25    16    17    1
    26    17    18    1
    27    15     1    1
    28     8     3   ar
    29    14     9    1
    30    18    15    1
    31    26    21   ar
    32    13    19    1
    33    13    20    1
@<TRIPOS>MOLECULE
*****
 29 33 0 0 0
SMALL
GASTEIGER

@<TRIPOS>ATOM
      1 C         138.4366  140.8586  161.8465 C.3     1  UNL1        0.1726
      2 O         138.2641  139.8502  162.9435 O.3     1  UNL1       -0.4792
      3 C         138.7262  140.1688  164.3345 C.ar    1  UNL1        0.1362
      4 C         138.5536  139.1604  165.4315 C.ar    1  UNL1        0.0366
      5 C         139.0157  139.4789  166.8225 C.ar    1  UNL1        0.0032
      6 C         139.6504  140.8058  167.1166 C.ar    1  UNL1        0.0029
      7 C         139.8230  141.8142  166.0196 C.ar    1  UNL1        0.0007
      8 C         139.3608  141.4956  164.6286 C.ar    1  UNL1        0.0357
      9 C         139.5334  142.5040  163.5316 C.3     1  UNL1        0.1582
     10 C         140.0417  142.9618  164.8666 C.3     1  UNL1        0.2351
     11 O         140.5937  144.3469  164.7023 O.2     1  UNL1       -0.4478
     12 C         140.4265  144.7452  163.2659 C.2     1  UNL1        0.2770
     13 N         140.8417  146.0528  162.6594 N.pl3   1  UNL1       -0.3133
     14 N         139.7712  143.6062  162.5423 N.2     1  UNL1       -0.2202
     15 C         139.0713  142.1855  162.1406 C.3     1  UNL1        0.1174
     16 C         139.0231  141.9042  162.4466 C.3     1  UNL1        0.1502
     17 O         139.0737  142.1999  162.1249 O.3     1  UNL1       -0.3532
     18 C         139.0231  141.9042  162.4466 C.3     1  UNL1        0.1502
     19 H         141.2669  146.7421  163.2192 H       1  UNL1        0.1466
     20 H         140.6890  146.2217  161.7016 H       1  UNL1        0.1466
     21 C         140.1125  141.1243  168.5076 C.ar    1  UNL1        0.0384
     22 C         139.6242  140.3059  169.6660 C.ar    1  UNL1        0.1022
     23 N         140.0863  140.6244  171.0570 N.ar    1  UNL1       -0.2224
     24 C         141.0367  141.7613  171.2898 C.ar    1  UNL1        0.1989
     25 N         141.5250  142.5797  170.1314 N.ar    1  UNL1       -0.2224
     26 C         141.0629  142.2612  168.7403 C.ar    1  UNL1        0.1022
     27 C         137.9745  140.5401  160.4554 C.3     1  UNL1        0.0438
     28 C         139.4004  139.9123  158.3763 C.3     1  UNL1        0.0001
     29 C         138.7008  139.5109  159.6411 C.3     1  UNL1        0.0037
@<TRIPOS>BOND
     1    28    29    1
     2    29    27    1
     3    27     1    1
     4     1     2    1
     5     2     3    1
     6     3     4   ar
     7     4     5   ar
     8     5     6   ar
     9     6    21    1
    10    21    22   ar
    11    22    23   ar
    12    23    24   ar
    13    24    25   ar
    14    25    26   ar
    15     6     7   ar
    16     7     8   ar
    17     8     9    1
    18     9    10    1
    19    10    11    1
    20    11    12    1
    21    12    13    1
    22    12    14    2
    23     9    15    1
    24    15    16    1
    25    16    17    1
    26    17    18    1
    27    15     1    1
    28     8     3   ar
    29    14     9    1
    30    18    15    1
    31    26    21   ar
    32    13    19    1
    33    13    20    1
@<TRIPOS>MOLECULE
*****
 29 33 0 0 0
SMALL
GASTEIGER

@<TRIPOS>ATOM
      1 C         141.5927  141.7777  168.8305 C.3     1  UNL1        0.1726
      2 O         142.3871  140.5555  168.4768 O.3     1  UNL1       -0.4792
      3 C         142.5062  140.1270  167.0443 C.ar    1  UNL1        0.1362
      4 C         143.3006  138.9048  166.6905 C.ar    1  UNL1        0.0366
      5 C         143.4197  138.4763  165.2580 C.ar    1  UNL1        0.0032
      6 C         142.7443  139.2700  164.1791 C.ar    1  UNL1        0.0029
      7 C         141.9499  140.4922  164.5328 C.ar    1  UNL1        0.0007
      8 C         141.8308  140.9207  165.9655 C.ar    1  UNL1        0.0357
      9 C         141.0364  142.1429  166.3192 C.3     1  UNL1        0.1582
     10 C         141.0661  141.8384  164.8506 C.3     1  UNL1        0.2351
     11 O         140.2608  142.8879  164.1433 O.2     1  UNL1       -0.4478
     12 C         139.7334  143.8409  165.1746 C.2     1  UNL1        0.2770
     13 N         138.8770  145.0432  164.9080 N.pl3   1  UNL1       -0.3133
     14 N         140.2128  143.3805  166.5194 N.2     1  UNL1       -0.2202
     15 C         140.9173  142.5714  167.7517 C.3     1  UNL1        0.1174
     16 C         141.1390  142.2304  167.6530 C.3     1  UNL1        0.1502
     17 O         140.9060  142.5888  167.7568 O.3     1  UNL1       -0.3532
     18 C         141.1390  142.2304  167.6530 C.3     1  UNL1        0.1502
     19 H         138.6129  145.2647  163.9858 H       1  UNL1        0.1466
     20 H         138.5791  145.6108  165.6552 H       1  UNL1        0.1466
     21 C         142.8634  138.8415  162.7466 C.ar    1  UNL1        0.0384
     22 C         144.0213  139.3116  161.9169 C.ar    1  UNL1        0.1022
     23 N         144.1404  138.8831  160.4844 N.ar    1  UNL1       -0.2224
     24 C         143.1016  137.9846  159.8815 C.ar    1  UNL1        0.1989
     25 N         141.9437  137.5145  160.7111 N.ar    1  UNL1       -0.2224
     26 C         141.8246  137.9430  162.1437 C.ar    1  UNL1        0.1022
     27 C         141.4736  142.2061  170.2631 C.3     1  UNL1        0.0438
     28 C         140.0523  140.1017  170.8121 C.3     1  UNL1        0.0001
     29 C         140.8465  141.2888  171.2707 C.3     1  UNL1        0.0037
@<TRIPOS>BOND
     1    28    29    1
     2    29    27    1
     3    27     1    1
     4     1     2    1
     5     2     3    1
     6     3     4   ar
     7     4     5   ar
     8     5     6   ar
     9     6    21    1
    10    21    22   ar
    11    22    23   ar
    12    23    24   ar
    13    24    25   ar
    14    25    26   ar
    15     6     7   ar
    16     7     8   ar
    17     8     9    1
    18     9    10    1
    19    10    11    1
    20    11    12    1
    21    12    13    1
    22    12    14    2
    23     9    15    1
    24    15    16    1
    25    16    17    1
    26    17    18    1
    27    15     1    1
    28     8     3   ar
    29    14     9    1
    30    18    15    1
    31    26    21   ar
    32    13    19    1
    33    13    20    1
@<TRIPOS>MOLECULE
*****
 29 33 0 0 0
SMALL
GASTEIGER

@<TRIPOS>ATOM
      1 C         141.0670  142.5100  166.7230 C.3     1  UNL1        0.1726
      2 O         142.3629  141.8482  166.3589 O.3     1  UNL1       -0.4792
      3 C         142.7536  141.7065  164.9176 C.ar    1  UNL1        0.1362
      4 C         144.0495  141.0448  164.5534 C.ar    1  UNL1        0.0366
      5 C         144.4403  140.9031  163.1122 C.ar    1  UNL1        0.0032
      6 C         143.5350  141.4231  162.0350 C.ar    1  UNL1        0.0029
      7 C         142.2391  142.0849  162.3992 C.ar    1  UNL1        0.0007
      8 C         141.8484  142.2266  163.8406 C.ar    1  UNL1        0.0357
      9 C         140.5524  142.8883  164.2048 C.3     1  UNL1        0.1582
     10 C         140.8082  142.8187  162.7283 C.3     1  UNL1        0.2351
     11 O         139.6462  143.4567  162.0260 O.2     1  UNL1       -0.4478
     12 C         138.6725  143.9206  163.0684 C.2     1  UNL1        0.2770
     13 N         137.3678  144.6140  162.8097 N.pl3   1  UNL1       -0.3133
     14 N         139.2325  143.5693  164.4150 N.2     1  UNL1       -0.2202
     15 C         140.1617  143.0300  165.6460 C.3     1  UNL1        0.1174
     16 C         140.5233  142.8454  165.5444 C.3     1  UNL1        0.1502
     17 O         140.1432  143.0395  165.6512 O.3     1  UNL1       -0.3532
     18 C         140.5233  142.8454  165.5444 C.3     1  UNL1        0.1502
     19 H         137.0850  144.8019  161.8857 H       1  UNL1        0.1466
     20 H         136.7943  144.8811  163.5640 H       1  UNL1        0.1466
     21 C         143.9257  141.2814  160.5938 C.ar    1  UNL1        0.0384
     22 C         143.7497  139.9659  159.8948 C.ar    1  UNL1        0.1022
     23 N         144.1404  139.8242  158.4536 N.ar    1  UNL1       -0.2224
     24 C         144.7072  140.9980  157.7113 C.ar    1  UNL1        0.1989
     25 N         144.8832  142.3134  158.4101 N.ar    1  UNL1       -0.2224
     26 C         144.4925  142.4552  159.8515 C.ar    1  UNL1        0.1022
     27 C         140.6763  142.6517  168.1644 C.3     1  UNL1        0.0438
     28 C         139.6464  140.2680  168.2522 C.3     1  UNL1        0.0001
     29 C         140.2619  141.4438  168.9514 C.3     1  UNL1        0.0037
@<TRIPOS>BOND
     1    28    29    1
     2    29    27    1
     3    27     1    1
     4     1     2    1
     5     2     3    1
     6     3     4   ar
     7     4     5   ar
     8     5     6   ar
     9     6    21    1
    10    21    22   ar
    11    22    23   ar
    12    23    24   ar
    13    24    25   ar
    14    25    26   ar
    15     6     7   ar
    16     7     8   ar
    17     8     9    1
    18     9    10    1
    19    10    11    1
    20    11    12    1
    21    12    13    1
    22    12    14    2
    23     9    15    1
    24    15    16    1
    25    16    17    1
    26    17    18    1
    27    15     1    1
    28     8     3   ar
    29    14     9    1
    30    18    15    1
    31    26    21   ar
    32    13    19    1
    33    13    20    1
@<TRIPOS>MOLECULE
*****
 29 33 0 0 0
SMALL
GASTEIGER

@<TRIPOS>ATOM
      1 C         141.2356  144.6186  161.6278 C.3     1  UNL1        0.1726
      2 O         140.0831  144.7727  162.5754 O.3     1  UNL1       -0.4792
      3 C         140.1742  144.2138  163.9644 C.ar    1  UNL1        0.1362
      4 C         139.0218  144.3679  164.9120 C.ar    1  UNL1        0.0366
      5 C         139.1129  143.8089  166.3009 C.ar    1  UNL1        0.0032
      6 C         140.3566  143.0957  166.7423 C.ar    1  UNL1        0.0029
      7 C         141.5091  142.9416  165.7946 C.ar    1  UNL1        0.0007
      8 C         141.4179  143.5006  164.4056 C.ar    1  UNL1        0.0357
      9 C         142.5703  143.3465  163.4580 C.3     1  UNL1        0.1582
     10 C         142.8057  142.7382  164.8088 C.3     1  UNL1        0.2351
     11 O         144.1779  142.1321  164.8116 O.2     1  UNL1       -0.4478
     12 C         144.7906  142.3659  163.4626 C.2     1  UNL1        0.2770
     13 N         146.1569  141.9263  163.0267 N.pl3   1  UNL1       -0.3133
     14 N         143.7971  143.1164  162.6260 N.2     1  UNL1       -0.2202
     15 C         142.4792  143.9055  162.0690 C.3     1  UNL1        0.1174
     16 C         142.1576  143.9485  162.3334 C.3     1  UNL1        0.1502
     17 O         142.4956  143.9033  162.0555 O.3     1  UNL1       -0.3532
     18 C         142.1576  143.9485  162.3334 C.3     1  UNL1        0.1502
     19 H         146.7390  141.4364  163.6514 H       1  UNL1        0.1466
     20 H         146.4715  142.1278  162.1158 H       1  UNL1        0.1466
     21 C         140.4478  142.5367  168.1312 C.ar    1  UNL1        0.0384
     22 C         140.5398  141.0539  168.3384 C.ar    1  UNL1        0.1022
     23 N         140.6310  140.4949  169.7273 N.ar    1  UNL1       -0.2224
     24 C         140.6301  141.4187  170.9091 C.ar    1  UNL1        0.1989
     25 N         140.5381  142.9014  170.7020 N.ar    1  UNL1       -0.2224
     26 C         140.4469  143.4605  169.3130 C.ar    1  UNL1        0.1022
     27 C         141.1443  145.1776  160.2388 C.3     1  UNL1        0.0438
     28 C         139.5616  143.2450  159.5248 C.3     1  UNL1        0.0001
     29 C         140.1840  144.5823  159.2523 C.3     1  UNL1        0.0037
@<TRIPOS>BOND
     1    28    29    1
     2    29    27    1
     3    27     1    1
     4     1     2    1
     5     2     3    1
     6     3     4   ar
     7     4     5   ar
     8     5     6   ar
     9     6    21    1
    10    21    22   ar
    11    22    23   ar
    12    23    24   ar
    13    24    25   ar
    14    25    26   ar
    15     6     7   ar
    16     7     8   ar
    17     8     9    1
    18     9    10    1
    19    10    11    1
    20    11    12    1
    21    12    13    1
    22    12    14    2
    23     9    15    1
    24    15    16    1
    25    16    17    1
    26    17    18    1
    27    15     1    1
    28     8     3   ar
    29    14     9    1
    30    18    15    1
    31    26    21   ar
    32    13    19    1
    33    13    20    1
