@<TRIPOS>MOLECULE
*****
 33 36 0 0 0
SMALL
GASTEIGER

@<TRIPOS>ATOM
      1 N         140.3580  138.6623  159.8550 N.3     1  UNL1       -0.2724
      2 C         139.9828  138.4860  158.4134 C.3     1  UNL1        0.0758
      3 C         140.9934  137.9681  157.4333 C.3     1  UNL1        0.0609
      4 C         142.3791  137.6265  157.8949 C.3     1  UNL1        0.1687
      5 C         142.7543  137.8028  159.3364 C.3     1  UNL1        0.0609
      6 C         141.7438  138.3206  160.3165 C.3     1  UNL1        0.0758
      7 C         139.3475  139.1801  160.8351 C.3     1  UNL1        0.0722
      8 N         140.4231  139.5571  165.1884 N.pl3   1  UNL1       -0.3075
      9 C         139.7723  138.3039  164.6824 C.3     1  UNL1        0.0908
     10 C         139.4137  138.1783  163.2313 C.3     1  UNL1        0.0229
     11 C         139.7060  139.3058  162.2862 C.3     1  UNL1        0.0194
     12 C         140.3569  140.5590  162.7922 C.3     1  UNL1        0.0229
     13 C         140.7154  140.6846  164.2432 C.3     1  UNL1        0.0908
     14 C         140.0986  140.2228  169.0873 C.ar    1  UNL1        0.0152
     15 C         141.4987  139.9342  169.5416 C.ar    1  UNL1        0.0012
     16 C         142.5403  139.5198  168.5449 C.ar    1  UNL1        0.0013
     17 C         142.1818  139.3942  167.0938 C.ar    1  UNL1        0.0145
     18 C         140.7817  139.6828  166.6395 C.ar    1  UNL1        0.0479
     19 C         139.7401  140.0971  167.6362 C.ar    1  UNL1        0.0156
     20 O         137.9688  139.6809  170.4730 O.co2   1  UNL1       -0.5446
     21 C         139.0571  140.6371  170.0840 C.2     1  UNL1        0.0729
     22 O         139.1038  142.0076  170.6919 O.co2   1  UNL1       -0.5446
     23 O         143.3897  137.1087  156.9148 O.3     1  UNL1       -0.4790
     24 C         143.1544  135.8035  156.2140 C.ar    1  UNL1        0.1392
     25 C         142.8562  135.7846  154.7440 C.ar    1  UNL1        0.0367
     26 C         142.6209  134.4794  154.0432 C.ar    1  UNL1        0.0021
     27 C         142.6838  133.1931  154.8123 C.ar    1  UNL1        0.0177
     28 C         142.9821  133.2120  156.2823 C.ar    1  UNL1        0.0590
     29 CL        143.0450  131.9258  157.0514 Cl      1  UNL1       -0.0824
     30 C         143.2173  134.5172  156.9831 C.ar    1  UNL1        0.0480
     31 C         142.4486  131.8880  154.1115 C.3     1  UNL1        0.1644
     32 O         143.0657  131.6363  152.7677 O.3     1  UNL1       -0.3772
     33 H         142.6797  132.2423  152.1160 H       1  UNL1        0.2109
@<TRIPOS>UNITY_ATOM_ATTR
20 1
charge -1
@<TRIPOS>BOND
     1    20    21   ar
     2    21    22   ar
     3    21    14    1
     4    14    15   ar
     5    15    16   ar
     6    16    17   ar
     7    17    18   ar
     8    18     8    1
     9     8     9    1
    10     9    10    1
    11    10    11    1
    12    11     7    1
    13     7     1    1
    14     1     2    1
    15     2     3    1
    16     3     4    1
    17     4    23    1
    18    23    24    1
    19    24    25   ar
    20    25    26   ar
    21    26    27   ar
    22    27    31    1
    23    31    32    1
    24    27    28   ar
    25    28    29    1
    26    28    30   ar
    27     4     5    1
    28     5     6    1
    29    11    12    1
    30    12    13    1
    31    18    19   ar
    32    19    14   ar
    33    13     8    1
    34     6     1    1
    35    30    24   ar
    36    32    33    1
@<TRIPOS>MOLECULE
*****
 33 36 0 0 0
SMALL
GASTEIGER

@<TRIPOS>ATOM
      1 N         138.7701  138.3482  161.9753 N.3     1  UNL1       -0.2724
      2 C         139.7681  138.0499  160.8960 C.3     1  UNL1        0.0758
      3 C         139.7186  138.8033  159.5997 C.3     1  UNL1        0.0609
      4 C         138.6713  139.8549  159.3830 C.3     1  UNL1        0.1687
      5 C         137.6733  140.1532  160.4624 C.3     1  UNL1        0.0609
      6 C         137.7227  139.3999  161.7585 C.3     1  UNL1        0.0758
      7 C         138.8196  137.5949  163.2715 C.3     1  UNL1        0.0722
      8 N         140.4157  139.5918  166.9749 N.pl3   1  UNL1       -0.3075
      9 C         141.3559  139.1756  165.8827 C.3     1  UNL1        0.0908
     10 C         140.8239  138.5100  164.6482 C.3     1  UNL1        0.0229
     11 C         139.3516  138.2605  164.5059 C.3     1  UNL1        0.0194
     12 C         138.4114  138.6767  165.5981 C.3     1  UNL1        0.0229
     13 C         138.9434  139.3423  166.8326 C.3     1  UNL1        0.0908
     14 C         140.7988  142.1425  169.9910 C.ar    1  UNL1        0.0152
     15 C         142.0116  141.5887  170.6783 C.ar    1  UNL1        0.0012
     16 C         142.6925  140.3693  170.1310 C.ar    1  UNL1        0.0013
     17 C         142.1605  139.7037  168.8966 C.ar    1  UNL1        0.0145
     18 C         140.9477  140.2574  168.2094 C.ar    1  UNL1        0.0479
     19 C         140.2668  141.4768  168.7566 C.ar    1  UNL1        0.0156
     20 O         140.7188  144.7186  170.3186 O.co2   1  UNL1       -0.5446
     21 C         140.1179  143.3619  170.5383 C.2     1  UNL1        0.0729
     22 O         138.8362  143.2246  171.3052 O.co2   1  UNL1       -0.5446
     23 O         138.6218  140.6082  158.0868 O.3     1  UNL1       -0.4790
     24 C         139.2245  141.9785  157.9923 C.ar    1  UNL1        0.1392
     25 C         138.9293  142.8475  156.8059 C.ar    1  UNL1        0.0367
     26 C         139.5319  144.2179  156.7114 C.ar    1  UNL1        0.0021
     27 C         140.4297  144.7193  157.8033 C.ar    1  UNL1        0.0177
     28 C         140.7250  143.8503  158.9899 C.ar    1  UNL1        0.0590
     29 CL        141.6228  144.3517  160.0818 Cl      1  UNL1       -0.0824
     30 C         140.1224  142.4800  159.0844 C.ar    1  UNL1        0.0480
     31 C         141.0324  146.0896  157.7088 C.3     1  UNL1        0.1644
     32 O         142.5232  146.2540  157.6940 O.3     1  UNL1       -0.3772
     33 H         142.8878  145.9749  158.5485 H       1  UNL1        0.2109
@<TRIPOS>UNITY_ATOM_ATTR
20 1
charge -1
@<TRIPOS>BOND
     1    20    21   ar
     2    21    22   ar
     3    21    14    1
     4    14    15   ar
     5    15    16   ar
     6    16    17   ar
     7    17    18   ar
     8    18     8    1
     9     8     9    1
    10     9    10    1
    11    10    11    1
    12    11     7    1
    13     7     1    1
    14     1     2    1
    15     2     3    1
    16     3     4    1
    17     4    23    1
    18    23    24    1
    19    24    25   ar
    20    25    26   ar
    21    26    27   ar
    22    27    31    1
    23    31    32    1
    24    27    28   ar
    25    28    29    1
    26    28    30   ar
    27     4     5    1
    28     5     6    1
    29    11    12    1
    30    12    13    1
    31    18    19   ar
    32    19    14   ar
    33    13     8    1
    34     6     1    1
    35    30    24   ar
    36    32    33    1
@<TRIPOS>MOLECULE
*****
 33 36 0 0 0
SMALL
GASTEIGER

@<TRIPOS>ATOM
      1 N         142.1025  144.0172  160.3363 N.3     1  UNL1       -0.2724
      2 C         142.2123  143.0907  159.1618 C.3     1  UNL1        0.0758
      3 C         141.3308  143.2898  157.9645 C.3     1  UNL1        0.0609
      4 C         140.3395  144.4153  157.9418 C.3     1  UNL1        0.1687
      5 C         140.2297  145.3418  159.1163 C.3     1  UNL1        0.0609
      6 C         141.1111  145.1428  160.3135 C.3     1  UNL1        0.0758
      7 C         142.9839  143.8182  161.5335 C.3     1  UNL1        0.0722
      8 N         141.2371  142.2706  165.3811 N.pl3   1  UNL1       -0.3075
      9 C         142.5639  142.9704  165.3877 C.3     1  UNL1        0.0908
     10 C         143.1462  143.4863  164.1052 C.3     1  UNL1        0.0229
     11 C         142.4017  143.3024  162.8160 C.3     1  UNL1        0.0194
     12 C         141.0749  142.6026  162.8094 C.3     1  UNL1        0.0229
     13 C         140.4926  142.0867  164.0919 C.3     1  UNL1        0.0908
     14 C         140.1538  142.0679  169.1936 C.ar    1  UNL1        0.0152
     15 C         139.4903  140.7231  169.2286 C.ar    1  UNL1        0.0012
     16 C         139.4091  139.8941  167.9812 C.ar    1  UNL1        0.0013
     17 C         139.9914  140.4099  166.6987 C.ar    1  UNL1        0.0145
     18 C         140.6548  141.7548  166.6636 C.ar    1  UNL1        0.0479
     19 C         140.7360  142.5837  167.9111 C.ar    1  UNL1        0.0156
     20 O         139.9672  144.3715  170.3804 O.co2   1  UNL1       -0.5446
     21 C         140.2350  142.8969  170.4411 C.2     1  UNL1        0.0729
     22 O         140.5839  142.2513  171.7492 O.co2   1  UNL1       -0.5446
     23 O         139.4581  144.6143  156.7446 O.3     1  UNL1       -0.4790
     24 C         139.6745  145.7921  155.8413 C.ar    1  UNL1        0.1392
     25 C         140.5605  145.6617  154.6381 C.ar    1  UNL1        0.0367
     26 C         140.7770  146.8396  153.7348 C.ar    1  UNL1        0.0021
     27 C         140.1074  148.1478  154.0348 C.ar    1  UNL1        0.0177
     28 C         139.2212  148.2783  155.2381 C.ar    1  UNL1        0.0590
     29 CL        138.5516  149.5865  155.5381 Cl      1  UNL1       -0.0824
     30 C         139.0048  147.1004  156.1414 C.ar    1  UNL1        0.0480
     31 C         140.3238  149.3256  153.1316 C.3     1  UNL1        0.1644
     32 O         141.2513  150.4288  153.5469 O.3     1  UNL1       -0.3772
     33 H         140.8862  150.8836  154.3220 H       1  UNL1        0.2109
@<TRIPOS>UNITY_ATOM_ATTR
20 1
charge -1
@<TRIPOS>BOND
     1    20    21   ar
     2    21    22   ar
     3    21    14    1
     4    14    15   ar
     5    15    16   ar
     6    16    17   ar
     7    17    18   ar
     8    18     8    1
     9     8     9    1
    10     9    10    1
    11    10    11    1
    12    11     7    1
    13     7     1    1
    14     1     2    1
    15     2     3    1
    16     3     4    1
    17     4    23    1
    18    23    24    1
    19    24    25   ar
    20    25    26   ar
    21    26    27   ar
    22    27    31    1
    23    31    32    1
    24    27    28   ar
    25    28    29    1
    26    28    30   ar
    27     4     5    1
    28     5     6    1
    29    11    12    1
    30    12    13    1
    31    18    19   ar
    32    19    14   ar
    33    13     8    1
    34     6     1    1
    35    30    24   ar
    36    32    33    1
@<TRIPOS>MOLECULE
*****
 33 36 0 0 0
SMALL
GASTEIGER

@<TRIPOS>ATOM
      1 N         139.2250  138.4143  161.5479 N.3     1  UNL1       -0.2724
      2 C         137.8894  139.0955  161.5025 C.3     1  UNL1        0.0758
      3 C         137.4873  139.8776  160.2873 C.3     1  UNL1        0.0609
      4 C         138.4208  139.9785  159.1176 C.3     1  UNL1        0.1687
      5 C         139.7565  139.2973  159.1630 C.3     1  UNL1        0.0609
      6 C         140.1585  138.5152  160.3781 C.3     1  UNL1        0.0758
      7 C         139.6271  137.6322  162.7631 C.3     1  UNL1        0.0722
      8 N         140.1370  139.7212  166.7161 N.pl3   1  UNL1       -0.3075
      9 C         138.8169  139.1056  166.3579 C.3     1  UNL1        0.0908
     10 C         138.6469  138.4093  165.0402 C.3     1  UNL1        0.0229
     11 C         139.7970  138.3285  164.0807 C.3     1  UNL1        0.0194
     12 C         141.1172  138.9442  164.4389 C.3     1  UNL1        0.0229
     13 C         141.2871  139.6405  165.7566 C.3     1  UNL1        0.0908
     14 C         141.6801  141.9763  169.5942 C.ar    1  UNL1        0.0152
     15 C         140.6471  141.8102  170.6690 C.ar    1  UNL1        0.0012
     16 C         139.4441  140.9478  170.4262 C.ar    1  UNL1        0.0013
     17 C         139.2740  140.2515  169.1086 C.ar    1  UNL1        0.0145
     18 C         140.3070  140.4176  168.0338 C.ar    1  UNL1        0.0479
     19 C         141.5100  141.2800  168.2766 C.ar    1  UNL1        0.0156
     20 O         144.0862  142.7147  168.9498 O.co2   1  UNL1       -0.5446
     21 C         142.8831  142.8388  169.8369 C.2     1  UNL1        0.0729
     22 O         142.8830  143.8253  170.9669 O.co2   1  UNL1       -0.5446
     23 O         138.0187  140.7606  157.9024 O.3     1  UNL1       -0.4790
     24 C         138.6212  142.1101  157.6458 C.ar    1  UNL1        0.1392
     25 C         138.5796  142.7001  156.2674 C.ar    1  UNL1        0.0367
     26 C         139.1821  144.0496  156.0107 C.ar    1  UNL1        0.0021
     27 C         139.8262  144.8090  157.1325 C.ar    1  UNL1        0.0177
     28 C         139.8679  144.2190  158.5110 C.ar    1  UNL1        0.0590
     29 CL        140.5120  144.9784  159.6328 Cl      1  UNL1       -0.0824
     30 C         139.2654  142.8695  158.7676 C.ar    1  UNL1        0.0480
     31 C         140.4287  146.1585  156.8759 C.3     1  UNL1        0.1644
     32 O         139.5699  147.3869  156.9349 O.3     1  UNL1       -0.3772
     33 H         138.9184  147.3607  156.2166 H       1  UNL1        0.2109
@<TRIPOS>UNITY_ATOM_ATTR
20 1
charge -1
@<TRIPOS>BOND
     1    20    21   ar
     2    21    22   ar
     3    21    14    1
     4    14    15   ar
     5    15    16   ar
     6    16    17   ar
     7    17    18   ar
     8    18     8    1
     9     8     9    1
    10     9    10    1
    11    10    11    1
    12    11     7    1
    13     7     1    1
    14     1     2    1
    15     2     3    1
    16     3     4    1
    17     4    23    1
    18    23    24    1
    19    24    25   ar
    20    25    26   ar
    21    26    27   ar
    22    27    31    1
    23    31    32    1
    24    27    28   ar
    25    28    29    1
    26    28    30   ar
    27     4     5    1
    28     5     6    1
    29    11    12    1
    30    12    13    1
    31    18    19   ar
    32    19    14   ar
    33    13     8    1
    34     6     1    1
    35    30    24   ar
    36    32    33    1
@<TRIPOS>MOLECULE
*****
 33 36 0 0 0
SMALL
GASTEIGER

@<TRIPOS>ATOM
      1 N         139.0906  142.4617  160.4397 N.3     1  UNL1       -0.2724
      2 C         138.7274  141.0759  160.8844 C.3     1  UNL1        0.0758
      3 C         138.6362  139.9657  159.8797 C.3     1  UNL1        0.0609
      4 C         138.9082  140.2413  158.4306 C.3     1  UNL1        0.1687
      5 C         139.2713  141.6271  157.9860 C.3     1  UNL1        0.0609
      6 C         139.3625  142.7373  158.9905 C.3     1  UNL1        0.0758
      7 C         139.1818  143.5719  161.4442 C.3     1  UNL1        0.0722
      8 N         140.8473  142.7637  165.5458 N.pl3   1  UNL1       -0.3075
      9 C         139.3995  143.1198  165.3810 C.3     1  UNL1        0.0908
     10 C         138.8443  143.3893  164.0138 C.3     1  UNL1        0.0229
     11 C         139.7369  143.3025  162.8114 C.3     1  UNL1        0.0194
     12 C         141.1847  142.9463  162.9762 C.3     1  UNL1        0.0229
     13 C         141.7399  142.6770  164.3434 C.3     1  UNL1        0.0908
     14 C         141.0287  142.0234  169.4406 C.ar    1  UNL1        0.0152
     15 C         142.5128  141.9555  169.6474 C.ar    1  UNL1        0.0012
     16 C         143.4417  142.1569  168.4870 C.ar    1  UNL1        0.0013
     17 C         142.8866  142.4263  167.1198 C.ar    1  UNL1        0.0145
     18 C         141.4025  142.4943  166.9130 C.ar    1  UNL1        0.0479
     19 C         140.4735  142.2928  168.0734 C.ar    1  UNL1        0.0156
     20 O         138.7710  141.1582  170.3915 O.co2   1  UNL1       -0.5446
     21 C         140.0997  141.8220  170.6010 C.2     1  UNL1        0.0729
     22 O         140.4995  142.2844  171.9708 O.co2   1  UNL1       -0.5446
     23 O         138.8170  139.1311  157.4261 O.3     1  UNL1       -0.4790
     24 C         140.0395  138.3370  157.0728 C.ar    1  UNL1        0.1392
     25 C         141.3843  138.7643  157.5816 C.ar    1  UNL1        0.0367
     26 C         142.6068  137.9702  157.2282 C.ar    1  UNL1        0.0021
     27 C         142.4846  136.7488  156.3661 C.ar    1  UNL1        0.0177
     28 C         141.1397  136.3215  155.8573 C.ar    1  UNL1        0.0590
     29 CL        141.0175  135.1001  154.9952 Cl      1  UNL1       -0.0824
     30 C         139.9172  137.1156  156.2106 C.ar    1  UNL1        0.0480
     31 C         143.7071  135.9547  156.0128 C.3     1  UNL1        0.1644
     32 O         144.9026  136.6414  155.4219 O.3     1  UNL1       -0.3772
     33 H         144.6755  136.9885  154.5451 H       1  UNL1        0.2109
@<TRIPOS>UNITY_ATOM_ATTR
20 1
charge -1
@<TRIPOS>BOND
     1    20    21   ar
     2    21    22   ar
     3    21    14    1
     4    14    15   ar
     5    15    16   ar
     6    16    17   ar
     7    17    18   ar
     8    18     8    1
     9     8     9    1
    10     9    10    1
    11    10    11    1
    12    11     7    1
    13     7     1    1
    14     1     2    1
    15     2     3    1
    16     3     4    1
    17     4    23    1
    18    23    24    1
    19    24    25   ar
    20    25    26   ar
    21    26    27   ar
    22    27    31    1
    23    31    32    1
    24    27    28   ar
    25    28    29    1
    26    28    30   ar
    27     4     5    1
    28     5     6    1
    29    11    12    1
    30    12    13    1
    31    18    19   ar
    32    19    14   ar
    33    13     8    1
    34     6     1    1
    35    30    24   ar
    36    32    33    1
@<TRIPOS>MOLECULE
*****
 33 36 0 0 0
SMALL
GASTEIGER

@<TRIPOS>ATOM
      1 N         139.7656  144.9215  160.6109 N.3     1  UNL1       -0.2724
      2 C         140.2946  145.6471  159.4094 C.3     1  UNL1        0.0758
      3 C         140.2912  144.9774  158.0671 C.3     1  UNL1        0.0609
      4 C         139.7587  143.5821  157.9265 C.3     1  UNL1        0.1687
      5 C         139.2298  142.8566  159.1281 C.3     1  UNL1        0.0609
      6 C         139.2332  143.5262  160.4702 C.3     1  UNL1        0.0758
      7 C         139.7691  145.5912  161.9531 C.3     1  UNL1        0.0722
      8 N         140.6346  143.1935  165.6615 N.pl3   1  UNL1       -0.3075
      9 C         139.2570  143.7377  165.4248 C.3     1  UNL1        0.0908
     10 C         138.9685  144.5370  164.1887 C.3     1  UNL1        0.0229
     11 C         140.0576  144.7920  163.1892 C.3     1  UNL1        0.0194
     12 C         141.4352  144.2477  163.4260 C.3     1  UNL1        0.0229
     13 C         141.7237  143.4485  164.6621 C.3     1  UNL1        0.0908
     14 C         140.7601  142.0965  169.4735 C.ar    1  UNL1        0.0152
     15 C         141.5001  140.7959  169.3699 C.ar    1  UNL1        0.0012
     16 C         141.9516  140.2945  168.0302 C.ar    1  UNL1        0.0013
     17 C         141.6631  141.0936  166.7941 C.ar    1  UNL1        0.0145
     18 C         140.9231  142.3942  166.8977 C.ar    1  UNL1        0.0479
     19 C         140.4716  142.8957  168.2373 C.ar    1  UNL1        0.0156
     20 O         139.3343  143.7351  170.8989 O.co2   1  UNL1       -0.5446
     21 C         140.3086  142.5979  170.8131 C.2     1  UNL1        0.0729
     22 O         140.8314  141.9622  172.0671 O.co2   1  UNL1       -0.5446
     23 O         139.7553  142.9125  156.5843 O.3     1  UNL1       -0.4790
     24 C         138.5842  142.0726  156.1682 C.ar    1  UNL1        0.1392
     25 C         137.1965  142.6386  156.2276 C.ar    1  UNL1        0.0367
     26 C         136.0254  141.7987  155.8115 C.ar    1  UNL1        0.0021
     27 C         136.2421  140.3927  155.3359 C.ar    1  UNL1        0.0177
     28 C         137.6300  139.8266  155.2765 C.ar    1  UNL1        0.0590
     29 CL        137.8467  138.4206  154.8010 Cl      1  UNL1       -0.0824
     30 C         138.8010  140.6665  155.6927 C.ar    1  UNL1        0.0480
     31 C         135.0711  139.5528  154.9198 C.3     1  UNL1        0.1644
     32 O         134.4593  138.5858  155.8897 O.3     1  UNL1       -0.3772
     33 H         135.0978  137.8846  156.0933 H       1  UNL1        0.2109
@<TRIPOS>UNITY_ATOM_ATTR
20 1
charge -1
@<TRIPOS>BOND
     1    20    21   ar
     2    21    22   ar
     3    21    14    1
     4    14    15   ar
     5    15    16   ar
     6    16    17   ar
     7    17    18   ar
     8    18     8    1
     9     8     9    1
    10     9    10    1
    11    10    11    1
    12    11     7    1
    13     7     1    1
    14     1     2    1
    15     2     3    1
    16     3     4    1
    17     4    23    1
    18    23    24    1
    19    24    25   ar
    20    25    26   ar
    21    26    27   ar
    22    27    31    1
    23    31    32    1
    24    27    28   ar
    25    28    29    1
    26    28    30   ar
    27     4     5    1
    28     5     6    1
    29    11    12    1
    30    12    13    1
    31    18    19   ar
    32    19    14   ar
    33    13     8    1
    34     6     1    1
    35    30    24   ar
    36    32    33    1
@<TRIPOS>MOLECULE
*****
 33 36 0 0 0
SMALL
GASTEIGER

@<TRIPOS>ATOM
      1 N         142.4239  144.1660  160.8869 N.3     1  UNL1       -0.2724
      2 C         141.4227  145.0514  160.2061 C.3     1  UNL1        0.0758
      3 C         140.9167  144.6985  158.8387 C.3     1  UNL1        0.0609
      4 C         141.4121  143.4602  158.1523 C.3     1  UNL1        0.1687
      5 C         142.4134  142.5748  158.8331 C.3     1  UNL1        0.0609
      6 C         142.9193  142.9277  160.2004 C.3     1  UNL1        0.0758
      7 C         142.9299  144.5189  162.2542 C.3     1  UNL1        0.0722
      8 N         141.1464  142.5553  165.8892 N.pl3   1  UNL1       -0.3075
      9 C         142.5606  142.2529  165.4913 C.3     1  UNL1        0.0908
     10 C         143.1552  142.9074  164.2796 C.3     1  UNL1        0.0229
     11 C         142.3354  143.8644  163.4658 C.3     1  UNL1        0.0194
     12 C         140.9211  144.1668  163.8638 C.3     1  UNL1        0.0229
     13 C         140.3266  143.5123  165.0754 C.3     1  UNL1        0.0908
     14 C         139.9548  141.9661  169.6286 C.ar    1  UNL1        0.0152
     15 C         139.3628  140.5918  169.5242 C.ar    1  UNL1        0.0012
     16 C         139.3653  139.8721  168.2082 C.ar    1  UNL1        0.0013
     17 C         139.9598  140.5265  166.9965 C.ar    1  UNL1        0.0145
     18 C         140.5518  141.9008  167.1009 C.ar    1  UNL1        0.0479
     19 C         140.5493  142.6206  168.4169 C.ar    1  UNL1        0.0156
     20 O         140.6908  142.1096  172.1161 O.co2   1  UNL1       -0.5446
     21 C         139.9523  142.6859  170.9446 C.2     1  UNL1        0.0729
     22 O         139.2112  143.9820  171.0891 O.co2   1  UNL1       -0.5446
     23 O         140.9062  143.1073  156.7850 O.3     1  UNL1       -0.4790
     24 C         139.5208  142.5573  156.6168 C.ar    1  UNL1        0.1392
     25 C         139.0335  141.4630  157.5196 C.ar    1  UNL1        0.0367
     26 C         137.6481  140.9131  157.3513 C.ar    1  UNL1        0.0021
     27 C         136.7500  141.4574  156.2803 C.ar    1  UNL1        0.0177
     28 C         137.2373  142.5518  155.3775 C.ar    1  UNL1        0.0590
     29 CL        136.3393  143.0961  154.3065 Cl      1  UNL1       -0.0824
     30 C         138.6227  143.1017  155.5457 C.ar    1  UNL1        0.0480
     31 C         135.3647  140.9075  156.1121 C.3     1  UNL1        0.1644
     32 O         135.1585  139.4306  155.9505 O.3     1  UNL1       -0.3772
     33 H         135.5517  139.1389  155.1131 H       1  UNL1        0.2109
@<TRIPOS>UNITY_ATOM_ATTR
20 1
charge -1
@<TRIPOS>BOND
     1    20    21   ar
     2    21    22   ar
     3    21    14    1
     4    14    15   ar
     5    15    16   ar
     6    16    17   ar
     7    17    18   ar
     8    18     8    1
     9     8     9    1
    10     9    10    1
    11    10    11    1
    12    11     7    1
    13     7     1    1
    14     1     2    1
    15     2     3    1
    16     3     4    1
    17     4    23    1
    18    23    24    1
    19    24    25   ar
    20    25    26   ar
    21    26    27   ar
    22    27    31    1
    23    31    32    1
    24    27    28   ar
    25    28    29    1
    26    28    30   ar
    27     4     5    1
    28     5     6    1
    29    11    12    1
    30    12    13    1
    31    18    19   ar
    32    19    14   ar
    33    13     8    1
    34     6     1    1
    35    30    24   ar
    36    32    33    1
@<TRIPOS>MOLECULE
*****
 33 36 0 0 0
SMALL
GASTEIGER

@<TRIPOS>ATOM
      1 N         143.4237  140.0700  160.1967 N.3     1  UNL1       -0.2724
      2 C         142.2649  139.1478  160.4348 C.3     1  UNL1        0.0758
      3 C         141.6208  138.4391  159.2802 C.3     1  UNL1        0.0609
      4 C         142.1355  138.6526  157.8876 C.3     1  UNL1        0.1687
      5 C         143.2944  139.5747  157.6495 C.3     1  UNL1        0.0609
      6 C         143.9385  140.2834  158.8040 C.3     1  UNL1        0.0758
      7 C         144.0678  140.7787  161.3512 C.3     1  UNL1        0.0722
      8 N         141.9441  141.0197  165.3112 N.pl3   1  UNL1       -0.3075
      9 C         143.1437  140.1327  165.1563 C.3     1  UNL1        0.0908
     10 C         143.8517  140.0524  163.8363 C.3     1  UNL1        0.0229
     11 C         143.3599  140.8590  162.6712 C.3     1  UNL1        0.0194
     12 C         142.1602  141.7460  162.8261 C.3     1  UNL1        0.0229
     13 C         141.4523  141.8264  164.1461 C.3     1  UNL1        0.0908
     14 C         140.8418  142.2961  168.9036 C.ar    1  UNL1        0.0152
     15 C         139.8204  141.2609  169.2712 C.ar    1  UNL1        0.0012
     16 C         139.5069  140.1453  168.3187 C.ar    1  UNL1        0.0013
     17 C         140.2148  140.0649  166.9988 C.ar    1  UNL1        0.0145
     18 C         141.2362  141.1001  166.6312 C.ar    1  UNL1        0.0479
     19 C         141.5497  142.2157  167.5837 C.ar    1  UNL1        0.0156
     20 O         140.1447  144.4919  170.1047 O.co2   1  UNL1       -0.5446
     21 C         141.1553  143.4117  169.8561 C.2     1  UNL1        0.0729
     22 O         142.4794  143.4471  170.5600 O.co2   1  UNL1       -0.5446
     23 O         141.4914  137.9439  156.7332 O.3     1  UNL1       -0.4790
     24 C         141.7876  136.4949  156.4830 C.ar    1  UNL1        0.1392
     25 C         141.0015  135.7352  155.4559 C.ar    1  UNL1        0.0367
     26 C         141.2977  134.2861  155.2057 C.ar    1  UNL1        0.0021
     27 C         142.3798  133.5968  155.9827 C.ar    1  UNL1        0.0177
     28 C         143.1659  134.3565  157.0098 C.ar    1  UNL1        0.0590
     29 CL        144.2481  133.6671  157.7868 Cl      1  UNL1       -0.0824
     30 C         142.8698  135.8055  157.2600 C.ar    1  UNL1        0.0480
     31 C         142.6759  132.1477  155.7325 C.3     1  UNL1        0.1644
     32 O         141.5814  131.2249  155.2850 O.3     1  UNL1       -0.3772
     33 H         140.9237  131.1364  155.9925 H       1  UNL1        0.2109
@<TRIPOS>UNITY_ATOM_ATTR
20 1
charge -1
@<TRIPOS>BOND
     1    20    21   ar
     2    21    22   ar
     3    21    14    1
     4    14    15   ar
     5    15    16   ar
     6    16    17   ar
     7    17    18   ar
     8    18     8    1
     9     8     9    1
    10     9    10    1
    11    10    11    1
    12    11     7    1
    13     7     1    1
    14     1     2    1
    15     2     3    1
    16     3     4    1
    17     4    23    1
    18    23    24    1
    19    24    25   ar
    20    25    26   ar
    21    26    27   ar
    22    27    31    1
    23    31    32    1
    24    27    28   ar
    25    28    29    1
    26    28    30   ar
    27     4     5    1
    28     5     6    1
    29    11    12    1
    30    12    13    1
    31    18    19   ar
    32    19    14   ar
    33    13     8    1
    34     6     1    1
    35    30    24   ar
    36    32    33    1
@<TRIPOS>MOLECULE
*****
 33 36 0 0 0
SMALL
GASTEIGER

@<TRIPOS>ATOM
      1 N         142.9684  143.6694  160.9099 N.3     1  UNL1       -0.2724
      2 C         142.2193  143.9083  159.6325 C.3     1  UNL1        0.0758
      3 C         142.5335  143.0909  158.4146 C.3     1  UNL1        0.0609
      4 C         143.5968  142.0346  158.4742 C.3     1  UNL1        0.1687
      5 C         144.3459  141.7956  159.7516 C.3     1  UNL1        0.0609
      6 C         144.0317  142.6130  160.9694 C.3     1  UNL1        0.0758
      7 C         142.6542  144.4867  162.1277 C.3     1  UNL1        0.0722
      8 N         140.9797  142.4987  165.8011 N.pl3   1  UNL1       -0.3075
      9 C         142.4048  142.2563  165.4008 C.3     1  UNL1        0.0908
     10 C         142.9630  142.9190  164.1763 C.3     1  UNL1        0.0229
     11 C         142.0961  143.8240  163.3522 C.3     1  UNL1        0.0194
     12 C         140.6709  144.0664  163.7525 C.3     1  UNL1        0.0229
     13 C         140.1128  143.4037  164.9770 C.3     1  UNL1        0.0908
     14 C         139.9652  141.8533  169.5832 C.ar    1  UNL1        0.0152
     15 C         139.3052  140.5108  169.4745 C.ar    1  UNL1        0.0012
     16 C         139.2034  139.8308  168.1414 C.ar    1  UNL1        0.0013
     17 C         139.7615  140.4934  166.9169 C.ar    1  UNL1        0.0145
     18 C         140.4215  141.8360  167.0256 C.ar    1  UNL1        0.0479
     19 C         140.5233  142.5159  168.3588 C.ar    1  UNL1        0.0156
     20 O         139.0421  143.5517  171.3191 O.co2   1  UNL1       -0.5446
     21 C         140.0670  142.5333  170.9164 C.2     1  UNL1        0.0729
     22 O         141.1938  142.1948  171.8468 O.co2   1  UNL1       -0.5446
     23 O         143.9110  141.2173  157.2563 O.3     1  UNL1       -0.4790
     24 C         145.1233  141.5350  156.4321 C.ar    1  UNL1        0.1392
     25 C         146.2599  142.3054  157.0359 C.ar    1  UNL1        0.0367
     26 C         147.4722  142.6230  156.2117 C.ar    1  UNL1        0.0021
     27 C         147.5480  142.1703  154.7837 C.ar    1  UNL1        0.0177
     28 C         146.4114  141.3999  154.1798 C.ar    1  UNL1        0.0590
     29 CL        146.4871  140.9472  152.7518 Cl      1  UNL1       -0.0824
     30 C         145.1990  141.0822  155.0040 C.ar    1  UNL1        0.0480
     31 C         148.7603  142.4880  153.9595 C.3     1  UNL1        0.1644
     32 O         149.8159  141.4442  153.7449 O.3     1  UNL1       -0.3772
     33 H         150.2440  141.2386  154.5906 H       1  UNL1        0.2109
@<TRIPOS>UNITY_ATOM_ATTR
20 1
charge -1
@<TRIPOS>BOND
     1    20    21   ar
     2    21    22   ar
     3    21    14    1
     4    14    15   ar
     5    15    16   ar
     6    16    17   ar
     7    17    18   ar
     8    18     8    1
     9     8     9    1
    10     9    10    1
    11    10    11    1
    12    11     7    1
    13     7     1    1
    14     1     2    1
    15     2     3    1
    16     3     4    1
    17     4    23    1
    18    23    24    1
    19    24    25   ar
    20    25    26   ar
    21    26    27   ar
    22    27    31    1
    23    31    32    1
    24    27    28   ar
    25    28    29    1
    26    28    30   ar
    27     4     5    1
    28     5     6    1
    29    11    12    1
    30    12    13    1
    31    18    19   ar
    32    19    14   ar
    33    13     8    1
    34     6     1    1
    35    30    24   ar
    36    32    33    1
