@<TRIPOS>MOLECULE
*****
 27 30 0 0 0
SMALL
GASTEIGER

@<TRIPOS>ATOM
      1 O         142.2316  138.0547  164.1970 O.2     1  UNL1       -0.2522
      2 C         141.2896  138.6381  163.1860 C.2     1  UNL1        0.3078
      3 N         140.0985  139.4290  163.6394 N.am    1  UNL1       -0.2681
      4 N         141.5388  138.4306  161.7214 N.am    1  UNL1       -0.2611
      5 C         142.7299  137.6397  161.2680 C.3     1  UNL1        0.1123
      6 C         142.9790  137.4322  159.8035 C.3     1  UNL1        0.0940
      7 N         142.0370  138.0156  158.7924 N.3     1  UNL1       -0.2697
      8 C         140.8459  138.8065  159.2458 C.3     1  UNL1        0.0940
      9 C         140.5968  139.0140  160.7103 C.3     1  UNL1        0.1123
     10 H         139.4802  139.8119  162.9758 H       1  UNL1        0.1564
     11 C         139.8493  139.6366  165.1040 C.ar    1  UNL1        0.0516
     12 C         140.7299  140.5613  165.8909 C.ar    1  UNL1        0.0152
     13 C         140.4807  140.7688  167.3554 C.ar    1  UNL1        0.0080
     14 C         139.3509  140.0516  168.0330 C.ar    1  UNL1        0.0346
     15 BR        139.1017  140.2591  169.4975 Br      1  UNL1       -0.0490
     16 C         138.4703  139.1268  167.2460 C.ar    1  UNL1        0.0080
     17 C         138.7195  138.9193  165.7815 C.ar    1  UNL1        0.0152
     18 C         142.2862  137.8080  157.3278 C.3     1  UNL1        0.0735
     19 C         142.2232  136.4275  156.7446 C.3     1  UNL1        0.0320
     20 C         141.1655  136.0865  155.7371 C.3     1  UNL1        0.0042
     21 C         141.1025  134.7060  155.1539 C.3     1  UNL1        0.0174
     22 C         142.0973  133.6664  155.5781 C.3     1  UNL1        0.0720
     23 N         143.1550  134.0075  156.5855 N.3     1  UNL1       -0.2739
     24 C         143.2179  135.3881  157.1688 C.3     1  UNL1        0.0734
     25 C         144.1497  132.9680  157.0097 C.3     1  UNL1        0.0576
     26 C         145.2063  132.4936  157.9628 C.3     1  UNL1        0.0173
     27 C         144.8160  131.6420  156.7914 C.3     1  UNL1        0.0173
@<TRIPOS>BOND
     1     1     2    2
     2     2     3   am
     3     3    11    1
     4    11    12   ar
     5    12    13   ar
     6    13    14   ar
     7    14    15    1
     8    14    16   ar
     9    16    17   ar
    10     2     4   am
    11     4     5    1
    12     5     6    1
    13     6     7    1
    14     7    18    1
    15    19    18    1
    16    19    20    1
    17    20    21    1
    18    21    22    1
    19    22    23    1
    20    23    25    1
    21    25    26    1
    22    26    27    1
    23    23    24    1
    24     7     8    1
    25     8     9    1
    26    17    11   ar
    27     9     4    1
    28    24    19    1
    29    27    25    1
    30     3    10    1
@<TRIPOS>MOLECULE
*****
 27 30 0 0 0
SMALL
GASTEIGER

@<TRIPOS>ATOM
      1 O         143.0903  139.7183  156.4542 O.2     1  UNL1       -0.2522
      2 C         143.2170  139.0842  157.8076 C.2     1  UNL1        0.3078
      3 N         142.9894  137.6105  157.9697 N.am    1  UNL1       -0.2681
      4 N         143.5712  139.9239  158.9991 N.am    1  UNL1       -0.2611
      5 C         143.7988  141.3976  158.8371 C.3     1  UNL1        0.1123
      6 C         144.1530  142.2372  160.0285 C.3     1  UNL1        0.0940
      7 N         144.2797  141.6030  161.3820 N.3     1  UNL1       -0.2697
      8 C         144.0521  140.1293  161.5440 C.3     1  UNL1        0.0940
      9 C         143.6979  139.2897  160.3526 C.3     1  UNL1        0.1123
     10 H         143.0725  137.1943  158.8580 H       1  UNL1        0.1564
     11 C         142.6351  136.7708  156.7782 C.ar    1  UNL1        0.0516
     12 C         141.2128  136.6992  156.3073 C.ar    1  UNL1        0.0152
     13 C         140.8586  135.8596  155.1159 C.ar    1  UNL1        0.0080
     14 C         141.9268  135.0915  154.3954 C.ar    1  UNL1        0.0346
     15 BR        141.5725  134.2518  153.2039 Br      1  UNL1       -0.0490
     16 C         143.3491  135.1630  154.8663 C.ar    1  UNL1        0.0080
     17 C         143.7033  136.0027  156.0577 C.ar    1  UNL1        0.0152
     18 C         144.6339  142.4427  162.5735 C.3     1  UNL1        0.0735
     19 C         143.6890  142.5332  163.7348 C.3     1  UNL1        0.0320
     20 C         144.0349  141.8728  165.0365 C.3     1  UNL1        0.0042
     21 C         143.0900  141.9634  166.1978 C.3     1  UNL1        0.0174
     22 C         141.7990  142.7143  166.0576 C.3     1  UNL1        0.0720
     23 N         141.4531  143.3748  164.7560 N.3     1  UNL1       -0.2739
     24 C         142.3981  143.2842  163.5946 C.3     1  UNL1        0.0734
     25 C         140.1622  144.1257  164.6158 C.3     1  UNL1        0.0576
     26 C         139.1420  144.8053  163.7514 C.3     1  UNL1        0.0173
     27 C         138.9466  144.7468  165.2374 C.3     1  UNL1        0.0173
@<TRIPOS>BOND
     1     1     2    2
     2     2     3   am
     3     3    11    1
     4    11    12   ar
     5    12    13   ar
     6    13    14   ar
     7    14    15    1
     8    14    16   ar
     9    16    17   ar
    10     2     4   am
    11     4     5    1
    12     5     6    1
    13     6     7    1
    14     7    18    1
    15    19    18    1
    16    19    20    1
    17    20    21    1
    18    21    22    1
    19    22    23    1
    20    23    25    1
    21    25    26    1
    22    26    27    1
    23    23    24    1
    24     7     8    1
    25     8     9    1
    26    17    11   ar
    27     9     4    1
    28    24    19    1
    29    27    25    1
    30     3    10    1
@<TRIPOS>MOLECULE
*****
 27 30 0 0 0
SMALL
GASTEIGER

@<TRIPOS>ATOM
      1 O         141.8931  138.6697  161.7368 O.2     1  UNL1       -0.2522
      2 C         140.7870  138.4461  160.7486 C.2     1  UNL1        0.3078
      3 N         139.3626  138.3953  161.2159 N.am    1  UNL1       -0.2681
      4 N         141.1054  138.2733  159.2929 N.am    1  UNL1       -0.2611
      5 C         142.5298  138.3241  158.8256 C.3     1  UNL1        0.1123
      6 C         142.8482  138.1513  157.3700 C.3     1  UNL1        0.0940
      7 N         141.7421  137.9278  156.3818 N.3     1  UNL1       -0.2697
      8 C         140.3177  137.8770  156.8491 C.3     1  UNL1        0.0940
      9 C         139.9994  138.0498  158.3046 C.3     1  UNL1        0.1123
     10 H         138.6367  138.2486  160.5672 H       1  UNL1        0.1564
     11 C         139.0442  138.5681  162.6715 C.ar    1  UNL1        0.0516
     12 C         139.2357  137.4238  163.6221 C.ar    1  UNL1        0.0152
     13 C         138.9173  137.5966  165.0777 C.ar    1  UNL1        0.0080
     14 C         138.4073  138.9138  165.5826 C.ar    1  UNL1        0.0346
     15 BR        138.0889  139.0866  167.0383 Br      1  UNL1       -0.0490
     16 C         138.2158  140.0582  164.6320 C.ar    1  UNL1        0.0080
     17 C         138.5342  139.8853  163.1765 C.ar    1  UNL1        0.0152
     18 C         142.0606  137.7550  154.9261 C.3     1  UNL1        0.0735
     19 C         142.1201  136.3801  154.3295 C.3     1  UNL1        0.0320
     20 C         141.6063  136.1424  152.9404 C.3     1  UNL1        0.0042
     21 C         141.6658  134.7675  152.3437 C.3     1  UNL1        0.0174
     22 C         142.2391  133.6302  153.1362 C.3     1  UNL1        0.0720
     23 N         142.7529  133.8678  154.5252 N.3     1  UNL1       -0.2739
     24 C         142.6934  135.2428  155.1219 C.3     1  UNL1        0.0734
     25 C         143.3262  132.7306  155.3177 C.3     1  UNL1        0.0576
     26 C         143.1525  131.4092  156.0059 C.3     1  UNL1        0.0173
     27 C         144.4930  132.0823  156.0020 C.3     1  UNL1        0.0173
@<TRIPOS>BOND
     1     1     2    2
     2     2     3   am
     3     3    11    1
     4    11    12   ar
     5    12    13   ar
     6    13    14   ar
     7    14    15    1
     8    14    16   ar
     9    16    17   ar
    10     2     4   am
    11     4     5    1
    12     5     6    1
    13     6     7    1
    14     7    18    1
    15    19    18    1
    16    19    20    1
    17    20    21    1
    18    21    22    1
    19    22    23    1
    20    23    25    1
    21    25    26    1
    22    26    27    1
    23    23    24    1
    24     7     8    1
    25     8     9    1
    26    17    11   ar
    27     9     4    1
    28    24    19    1
    29    27    25    1
    30     3    10    1
@<TRIPOS>MOLECULE
*****
 27 30 0 0 0
SMALL
GASTEIGER

@<TRIPOS>ATOM
      1 O         139.8268  143.4106  157.6418 O.2     1  UNL1       -0.2522
      2 C         140.1627  144.5584  158.5471 C.2     1  UNL1        0.3078
      3 N         140.7147  145.8296  157.9733 N.am    1  UNL1       -0.2681
      4 N         139.9465  144.4350  160.0264 N.am    1  UNL1       -0.2611
      5 C         139.3945  143.1638  160.6002 C.3     1  UNL1        0.1123
      6 C         139.1784  143.0404  162.0794 C.3     1  UNL1        0.0940
      7 N         139.5143  144.1882  162.9848 N.3     1  UNL1       -0.2697
      8 C         140.0663  145.4594  162.4109 C.3     1  UNL1        0.0940
      9 C         140.2824  145.5828  160.9318 C.3     1  UNL1        0.1123
     10 H         140.9351  146.5829  158.5676 H       1  UNL1        0.1564
     11 C         140.9308  145.9530  156.4941 C.ar    1  UNL1        0.0516
     12 C         142.0655  145.2233  155.8385 C.ar    1  UNL1        0.0152
     13 C         142.2816  145.3468  154.3593 C.ar    1  UNL1        0.0080
     14 C         141.3630  146.1999  153.5357 C.ar    1  UNL1        0.0346
     15 BR        141.5792  146.3234  152.0565 Br      1  UNL1       -0.0490
     16 C         140.2283  146.9296  154.1913 C.ar    1  UNL1        0.0080
     17 C         140.0122  146.8062  155.6705 C.ar    1  UNL1        0.0152
     18 C         139.2981  144.0648  164.4640 C.3     1  UNL1        0.0735
     19 C         139.8493  142.8838  165.2066 C.3     1  UNL1        0.0320
     20 C         141.2382  142.9343  165.7709 C.3     1  UNL1        0.0042
     21 C         141.7895  141.7534  166.5134 C.3     1  UNL1        0.0174
     22 C         140.9518  140.5218  166.6917 C.3     1  UNL1        0.0720
     23 N         139.5629  140.4713  166.1274 N.3     1  UNL1       -0.2739
     24 C         139.0117  141.6524  165.3848 C.3     1  UNL1        0.0734
     25 C         138.7253  139.2399  166.3056 C.3     1  UNL1        0.0576
     26 C         137.6444  138.4983  167.0349 C.3     1  UNL1        0.0173
     27 C         138.3553  137.8484  165.8850 C.3     1  UNL1        0.0173
@<TRIPOS>BOND
     1     1     2    2
     2     2     3   am
     3     3    11    1
     4    11    12   ar
     5    12    13   ar
     6    13    14   ar
     7    14    15    1
     8    14    16   ar
     9    16    17   ar
    10     2     4   am
    11     4     5    1
    12     5     6    1
    13     6     7    1
    14     7    18    1
    15    19    18    1
    16    19    20    1
    17    20    21    1
    18    21    22    1
    19    22    23    1
    20    23    25    1
    21    25    26    1
    22    26    27    1
    23    23    24    1
    24     7     8    1
    25     8     9    1
    26    17    11   ar
    27     9     4    1
    28    24    19    1
    29    27    25    1
    30     3    10    1
@<TRIPOS>MOLECULE
*****
 27 30 0 0 0
SMALL
GASTEIGER

@<TRIPOS>ATOM
      1 O         143.5963  136.4515  156.5696 O.2     1  UNL1       -0.2522
      2 C         142.1176  136.6588  156.7119 C.2     1  UNL1        0.3078
      3 N         141.1605  135.6947  156.0758 N.am    1  UNL1       -0.2681
      4 N         141.5958  137.8301  157.4903 N.am    1  UNL1       -0.2611
      5 C         142.5528  138.7941  158.1264 C.3     1  UNL1        0.1123
      6 C         142.0311  139.9654  158.9047 C.3     1  UNL1        0.0940
      7 N         140.5523  140.1726  159.0470 N.3     1  UNL1       -0.2697
      8 C         139.5953  139.2086  158.4109 C.3     1  UNL1        0.0940
      9 C         140.1170  138.0373  157.6325 C.3     1  UNL1        0.1123
     10 H         140.1899  135.8307  156.1692 H       1  UNL1        0.1564
     11 C         141.6823  134.5234  155.2974 C.ar    1  UNL1        0.0516
     12 C         142.2307  133.3280  156.0185 C.ar    1  UNL1        0.0152
     13 C         142.7524  132.1567  155.2401 C.ar    1  UNL1        0.0080
     14 C         142.7257  132.1809  153.7406 C.ar    1  UNL1        0.0346
     15 BR        143.2474  131.0096  152.9622 Br      1  UNL1       -0.0490
     16 C         142.1772  133.3763  153.0194 C.ar    1  UNL1        0.0080
     17 C         141.6555  134.5475  153.7978 C.ar    1  UNL1        0.0152
     18 C         140.0305  141.3439  159.8254 C.3     1  UNL1        0.0735
     19 C         139.2936  141.1207  161.1126 C.3     1  UNL1        0.0320
     20 C         138.2041  142.0650  161.5266 C.3     1  UNL1        0.0042
     21 C         137.4671  141.8417  162.8138 C.3     1  UNL1        0.0174
     22 C         137.8197  140.6742  163.6872 C.3     1  UNL1        0.0720
     23 N         138.9092  139.7300  163.2733 N.3     1  UNL1       -0.2739
     24 C         139.6462  139.9533  161.9859 C.3     1  UNL1        0.0734
     25 C         139.2618  138.5626  164.1466 C.3     1  UNL1        0.0576
     26 C         140.2612  137.5486  164.6188 C.3     1  UNL1        0.0173
     27 C         138.8731  137.5544  165.1870 C.3     1  UNL1        0.0173
@<TRIPOS>BOND
     1     1     2    2
     2     2     3   am
     3     3    11    1
     4    11    12   ar
     5    12    13   ar
     6    13    14   ar
     7    14    15    1
     8    14    16   ar
     9    16    17   ar
    10     2     4   am
    11     4     5    1
    12     5     6    1
    13     6     7    1
    14     7    18    1
    15    19    18    1
    16    19    20    1
    17    20    21    1
    18    21    22    1
    19    22    23    1
    20    23    25    1
    21    25    26    1
    22    26    27    1
    23    23    24    1
    24     7     8    1
    25     8     9    1
    26    17    11   ar
    27     9     4    1
    28    24    19    1
    29    27    25    1
    30     3    10    1
@<TRIPOS>MOLECULE
*****
 27 30 0 0 0
SMALL
GASTEIGER

@<TRIPOS>ATOM
      1 O         139.0985  144.2543  164.8672 O.2     1  UNL1       -0.2522
      2 C         140.0951  143.5149  164.0246 C.2     1  UNL1        0.3078
      3 N         140.7762  142.2934  164.5668 N.am    1  UNL1       -0.2681
      4 N         140.4106  143.9970  162.6396 N.am    1  UNL1       -0.2611
      5 C         139.7296  145.2185  162.0974 C.3     1  UNL1        0.1123
      6 C         140.0451  145.7006  160.7125 C.3     1  UNL1        0.0940
      7 N         141.0417  144.9612  159.8698 N.3     1  UNL1       -0.2697
      8 C         141.7227  143.7397  160.4120 C.3     1  UNL1        0.0940
      9 C         141.4072  143.2576  161.7969 C.3     1  UNL1        0.1123
     10 H         141.4303  141.8081  164.0137 H       1  UNL1        0.1564
     11 C         140.4607  141.8113  165.9518 C.ar    1  UNL1        0.0516
     12 C         140.8765  142.6242  167.1418 C.ar    1  UNL1        0.0152
     13 C         140.5610  142.1420  168.5267 C.ar    1  UNL1        0.0080
     14 C         139.8296  140.8470  168.7215 C.ar    1  UNL1        0.0346
     15 BR        139.5141  140.3648  170.1065 Br      1  UNL1       -0.0490
     16 C         139.4138  140.0341  167.5315 C.ar    1  UNL1        0.0080
     17 C         139.7293  140.5162  166.1466 C.ar    1  UNL1        0.0152
     18 C         141.3572  145.4433  158.4848 C.3     1  UNL1        0.0735
     19 C         140.3003  145.4121  157.4209 C.3     1  UNL1        0.0320
     20 C         140.0236  146.6382  156.6023 C.3     1  UNL1        0.0042
     21 C         138.9668  146.6070  155.5384 C.3     1  UNL1        0.0174
     22 C         138.1866  145.3495  155.2929 C.3     1  UNL1        0.0720
     23 N         138.4633  144.1234  156.1114 N.3     1  UNL1       -0.2739
     24 C         139.5202  144.1547  157.1754 C.3     1  UNL1        0.0734
     25 C         137.6831  142.8660  155.8660 C.3     1  UNL1        0.0576
     26 C         136.4473  142.1815  155.3620 C.3     1  UNL1        0.0173
     27 C         137.5678  141.3725  155.9449 C.3     1  UNL1        0.0173
@<TRIPOS>BOND
     1     1     2    2
     2     2     3   am
     3     3    11    1
     4    11    12   ar
     5    12    13   ar
     6    13    14   ar
     7    14    15    1
     8    14    16   ar
     9    16    17   ar
    10     2     4   am
    11     4     5    1
    12     5     6    1
    13     6     7    1
    14     7    18    1
    15    19    18    1
    16    19    20    1
    17    20    21    1
    18    21    22    1
    19    22    23    1
    20    23    25    1
    21    25    26    1
    22    26    27    1
    23    23    24    1
    24     7     8    1
    25     8     9    1
    26    17    11   ar
    27     9     4    1
    28    24    19    1
    29    27    25    1
    30     3    10    1
@<TRIPOS>MOLECULE
*****
 27 30 0 0 0
SMALL
GASTEIGER

@<TRIPOS>ATOM
      1 O         138.1650  142.6531  159.2250 O.2     1  UNL1       -0.2522
      2 C         138.0674  141.1568  159.2660 C.2     1  UNL1        0.3078
      3 N         137.7665  140.3902  158.0123 N.am    1  UNL1       -0.2681
      4 N         138.2708  140.4271  160.5607 N.am    1  UNL1       -0.2611
      5 C         138.5717  141.1937  161.8144 C.3     1  UNL1        0.1123
      6 C         138.7750  140.4640  163.1090 C.3     1  UNL1        0.0940
      7 N         138.6774  138.9678  163.1500 N.3     1  UNL1       -0.2697
      8 C         138.3765  138.2012  161.8963 C.3     1  UNL1        0.0940
      9 C         138.1732  138.9309  160.6017 C.3     1  UNL1        0.1123
     10 H         137.7025  139.4082  158.0392 H       1  UNL1        0.1564
     11 C         137.5632  141.1199  156.7175 C.ar    1  UNL1        0.0516
     12 C         138.7485  141.5697  155.9160 C.ar    1  UNL1        0.0152
     13 C         138.5452  142.2994  154.6213 C.ar    1  UNL1        0.0080
     14 C         137.1564  142.5792  154.1282 C.ar    1  UNL1        0.0346
     15 BR        136.9531  143.3089  152.8334 Br      1  UNL1       -0.0490
     16 C         135.9711  142.1294  154.9298 C.ar    1  UNL1        0.0080
     17 C         136.1745  141.3997  156.2244 C.ar    1  UNL1        0.0152
     18 C         138.8808  138.2381  164.4448 C.3     1  UNL1        0.0735
     19 C         139.8377  138.7764  165.4668 C.3     1  UNL1        0.0320
     20 C         141.3163  138.6820  165.2328 C.3     1  UNL1        0.0042
     21 C         142.2732  139.2202  166.2548 C.3     1  UNL1        0.0174
     22 C         141.7515  139.8530  167.5108 C.3     1  UNL1        0.0720
     23 N         140.2729  139.9474  167.7448 N.3     1  UNL1       -0.2739
     24 C         139.3160  139.4091  166.7227 C.3     1  UNL1        0.0734
     25 C         139.7512  140.5801  169.0007 C.3     1  UNL1        0.0576
     26 C         139.7781  141.6985  169.9999 C.3     1  UNL1        0.0173
     27 C         138.8206  140.5575  170.1769 C.3     1  UNL1        0.0173
@<TRIPOS>BOND
     1     1     2    2
     2     2     3   am
     3     3    11    1
     4    11    12   ar
     5    12    13   ar
     6    13    14   ar
     7    14    15    1
     8    14    16   ar
     9    16    17   ar
    10     2     4   am
    11     4     5    1
    12     5     6    1
    13     6     7    1
    14     7    18    1
    15    19    18    1
    16    19    20    1
    17    20    21    1
    18    21    22    1
    19    22    23    1
    20    23    25    1
    21    25    26    1
    22    26    27    1
    23    23    24    1
    24     7     8    1
    25     8     9    1
    26    17    11   ar
    27     9     4    1
    28    24    19    1
    29    27    25    1
    30     3    10    1
@<TRIPOS>MOLECULE
*****
 27 30 0 0 0
SMALL
GASTEIGER

@<TRIPOS>ATOM
      1 O         140.4057  145.3716  158.1803 O.2     1  UNL1       -0.2522
      2 C         139.5322  144.3390  157.5316 C.2     1  UNL1        0.3078
      3 N         139.0603  144.5348  156.1213 N.am    1  UNL1       -0.2681
      4 N         139.1307  143.1106  158.2931 N.am    1  UNL1       -0.2611
      5 C         139.6026  142.9148  159.7034 C.3     1  UNL1        0.1123
      6 C         139.2010  141.6865  160.4649 C.3     1  UNL1        0.0940
      7 N         138.3275  140.6540  159.8161 N.3     1  UNL1       -0.2697
      8 C         137.8556  140.8498  158.4058 C.3     1  UNL1        0.0940
      9 C         138.2572  142.0781  157.6443 C.3     1  UNL1        0.1123
     10 H         138.4870  143.8571  155.6955 H       1  UNL1        0.1564
     11 C         139.4619  145.7632  155.3597 C.ar    1  UNL1        0.0516
     12 C         140.4971  145.6702  154.2782 C.ar    1  UNL1        0.0152
     13 C         140.8986  146.8985  153.5167 C.ar    1  UNL1        0.0080
     14 C         140.2649  148.2199  153.8367 C.ar    1  UNL1        0.0346
     15 BR        140.6665  149.4483  153.0752 Br      1  UNL1       -0.0490
     16 C         139.2297  148.3129  154.9182 C.ar    1  UNL1        0.0080
     17 C         138.8282  147.0846  155.6797 C.ar    1  UNL1        0.0152
     18 C         137.9260  139.4256  160.5777 C.3     1  UNL1        0.0735
     19 C         138.7831  138.9274  161.7033 C.3     1  UNL1        0.0320
     20 C         140.0655  138.2076  161.4076 C.3     1  UNL1        0.0042
     21 C         140.9226  137.7094  162.5332 C.3     1  UNL1        0.0174
     22 C         140.4974  137.9309  163.9546 C.3     1  UNL1        0.0720
     23 N         139.2151  138.6508  164.2502 N.3     1  UNL1       -0.2739
     24 C         138.3579  139.1490  163.1245 C.3     1  UNL1        0.0734
     25 C         138.7899  138.8724  165.6715 C.3     1  UNL1        0.0576
     26 C         139.0312  139.4853  167.0191 C.3     1  UNL1        0.0173
     27 C         137.8120  138.6433  166.7856 C.3     1  UNL1        0.0173
@<TRIPOS>BOND
     1     1     2    2
     2     2     3   am
     3     3    11    1
     4    11    12   ar
     5    12    13   ar
     6    13    14   ar
     7    14    15    1
     8    14    16   ar
     9    16    17   ar
    10     2     4   am
    11     4     5    1
    12     5     6    1
    13     6     7    1
    14     7    18    1
    15    19    18    1
    16    19    20    1
    17    20    21    1
    18    21    22    1
    19    22    23    1
    20    23    25    1
    21    25    26    1
    22    26    27    1
    23    23    24    1
    24     7     8    1
    25     8     9    1
    26    17    11   ar
    27     9     4    1
    28    24    19    1
    29    27    25    1
    30     3    10    1
@<TRIPOS>MOLECULE
*****
 27 30 0 0 0
SMALL
GASTEIGER

@<TRIPOS>ATOM
      1 O         142.8671  139.6194  157.3264 O.2     1  UNL1       -0.2522
      2 C         143.0553  138.6798  158.4804 C.2     1  UNL1        0.3078
      3 N         142.9141  137.2009  158.2741 N.am    1  UNL1       -0.2681
      4 N         143.3849  139.2193  159.8407 N.am    1  UNL1       -0.2611
      5 C         143.5261  140.6983  160.0470 C.3     1  UNL1        0.1123
      6 C         143.8556  141.2377  161.4073 C.3     1  UNL1        0.0940
      7 N         144.0439  140.2981  162.5613 N.3     1  UNL1       -0.2697
      8 C         143.9026  138.8191  162.3550 C.3     1  UNL1        0.0940
      9 C         143.5731  138.2797  160.9948 C.3     1  UNL1        0.1123
     10 H         143.0376  136.5842  159.0315 H       1  UNL1        0.1564
     11 C         142.5846  136.6614  156.9138 C.ar    1  UNL1        0.0516
     12 C         141.1775  136.7333  156.3991 C.ar    1  UNL1        0.0152
     13 C         140.8480  136.1938  155.0388 C.ar    1  UNL1        0.0080
     14 C         141.9257  135.5825  154.1932 C.ar    1  UNL1        0.0346
     15 BR        141.5961  135.0430  152.8329 Br      1  UNL1       -0.0490
     16 C         143.3327  135.5106  154.7079 C.ar    1  UNL1        0.0080
     17 C         143.6622  136.0501  156.0682 C.ar    1  UNL1        0.0152
     18 C         144.3734  140.8376  163.9217 C.3     1  UNL1        0.0735
     19 C         143.2842  141.0365  164.9336 C.3     1  UNL1        0.0320
     20 C         143.4620  142.0327  166.0409 C.3     1  UNL1        0.0042
     21 C         142.3729  142.2316  167.0528 C.3     1  UNL1        0.0174
     22 C         141.1058  141.4344  166.9575 C.3     1  UNL1        0.0720
     23 N         140.9279  140.4383  165.8503 N.3     1  UNL1       -0.2739
     24 C         142.0172  140.2393  164.8383 C.3     1  UNL1        0.0734
     25 C         139.6609  139.6411  165.7549 C.3     1  UNL1        0.0576
     26 C         138.9651  138.3223  165.5923 C.3     1  UNL1        0.0173
     27 C         138.1622  139.5791  165.7525 C.3     1  UNL1        0.0173
@<TRIPOS>BOND
     1     1     2    2
     2     2     3   am
     3     3    11    1
     4    11    12   ar
     5    12    13   ar
     6    13    14   ar
     7    14    15    1
     8    14    16   ar
     9    16    17   ar
    10     2     4   am
    11     4     5    1
    12     5     6    1
    13     6     7    1
    14     7    18    1
    15    19    18    1
    16    19    20    1
    17    20    21    1
    18    21    22    1
    19    22    23    1
    20    23    25    1
    21    25    26    1
    22    26    27    1
    23    23    24    1
    24     7     8    1
    25     8     9    1
    26    17    11   ar
    27     9     4    1
    28    24    19    1
    29    27    25    1
    30     3    10    1
