@<TRIPOS>MOLECULE
*****
 32 36 0 0 0
SMALL
GASTEIGER

@<TRIPOS>ATOM
      1 C         143.2306  143.4349  162.8101 C.2     1  UNL1        0.1157
      2 N         143.4057  143.5731  161.3267 N.2     1  UNL1       -0.1790
      3 N         142.0441  143.6900  160.7083 N.pl3   1  UNL1       -0.2061
      4 C         141.5986  143.8480  159.2847 C.ar    1  UNL1        0.1038
      5 C         142.6151  143.9139  158.1836 C.ar    1  UNL1        0.0308
      6 C         142.1696  144.0719  156.7601 C.ar    1  UNL1        0.0592
      7 CL        143.1861  144.1379  155.6589 Cl      1  UNL1       -0.0822
      8 C         140.7075  144.1639  156.4376 C.ar    1  UNL1        0.0146
      9 C         139.6910  144.0979  157.5386 C.ar    1  UNL1        0.0391
     10 C         140.1366  143.9399  158.9622 C.ar    1  UNL1        0.1536
     11 O         139.1201  143.8740  160.0633 O.3     1  UNL1       -0.4723
     12 C         139.5656  143.7160  161.4868 C.3     1  UNL1        0.2277
     13 C         141.0276  143.6240  161.8093 C.3     1  UNL1        0.1488
     14 C         141.7610  143.4664  163.1083 C.3     1  UNL1        0.0806
     15 C         140.3844  143.4648  163.7042 C.ar    1  UNL1       -0.0157
     16 C         139.8555  144.6986  164.3735 C.ar    1  UNL1       -0.0039
     17 C         138.4789  144.6970  164.9695 C.ar    1  UNL1       -0.0003
     18 C         137.6312  143.4617  164.8960 C.ar    1  UNL1       -0.0000
     19 C         138.1601  142.2279  164.2267 C.ar    1  UNL1       -0.0003
     20 C         139.5367  142.2294  163.6307 C.ar    1  UNL1       -0.0039
     21 C         145.2319  142.0912  163.7793 C.3     1  UNL1        0.0786
     22 C         144.3320  143.2906  163.8182 C.2     1  UNL1        0.1887
     23 O         144.5335  144.3457  164.8651 O.2     1  UNL1       -0.2900
     24 C         142.2065  143.3084  164.5319 C.3     1  UNL1        0.0130
     25 C         141.8007  142.0948  165.3145 C.3     1  UNL1        0.0181
     26 C         142.5616  141.7091  166.5483 C.3     1  UNL1        0.0723
     27 N         142.1794  142.2899  167.8774 N.3     1  UNL1       -0.2685
     28 C         140.7871  142.8018  168.0997 C.3     1  UNL1        0.1046
     29 C         140.4049  143.3827  169.4288 C.3     1  UNL1        0.1595
     30 O         141.4149  143.4516  170.5357 O.3     1  UNL1       -0.3508
     31 C         142.8072  142.9396  170.3134 C.3     1  UNL1        0.1595
     32 C         143.1895  142.3588  168.9842 C.3     1  UNL1        0.1046
@<TRIPOS>BOND
     1    21    22    1
     2    22    23    2
     3    22     1    1
     4     1     2    2
     5     2     3    1
     6     3     4    1
     7     4     5   ar
     8     5     6   ar
     9     6     7    1
    10     6     8   ar
    11     8     9   ar
    12     9    10   ar
    13    10    11    1
    14    11    12    1
    15    13    12    1
    16    13    14    1
    17    14    24    1
    18    24    25    1
    19    25    26    1
    20    26    27    1
    21    27    28    1
    22    28    29    1
    23    29    30    1
    24    30    31    1
    25    31    32    1
    26    14    15    1
    27    15    16   ar
    28    16    17   ar
    29    17    18   ar
    30    18    19   ar
    31    19    20   ar
    32    14     1    1
    33    32    27    1
    34    20    15   ar
    35    13     3    1
    36    10     4   ar
@<TRIPOS>MOLECULE
*****
 32 36 0 0 0
SMALL
GASTEIGER

@<TRIPOS>ATOM
      1 C         139.5773  144.2297  163.2440 C.2     1  UNL1        0.1157
      2 N         139.3789  144.7565  161.8536 N.2     1  UNL1       -0.1790
      3 N         140.6144  144.4485  161.0606 N.pl3   1  UNL1       -0.2061
      4 C         140.9878  144.7285  159.6350 C.ar    1  UNL1        0.1038
      5 C         140.0259  145.4456  158.7348 C.ar    1  UNL1        0.0308
      6 C         140.3993  145.7255  157.3093 C.ar    1  UNL1        0.0592
      7 CL        139.4374  146.4427  156.4089 Cl      1  UNL1       -0.0822
      8 C         141.7346  145.2883  156.7840 C.ar    1  UNL1        0.0146
      9 C         142.6964  144.5711  157.6842 C.ar    1  UNL1        0.0391
     10 C         142.3230  144.2912  159.1098 C.ar    1  UNL1        0.1536
     11 O         143.2849  143.5740  160.0101 O.3     1  UNL1       -0.4723
     12 C         142.9115  143.2941  161.4356 C.3     1  UNL1        0.2277
     13 C         141.5762  143.7314  161.9609 C.3     1  UNL1        0.1488
     14 C         140.9352  143.5961  163.3103 C.3     1  UNL1        0.0806
     15 C         142.2152  142.9040  163.6746 C.ar    1  UNL1       -0.0157
     16 C         143.2890  143.6510  164.4088 C.ar    1  UNL1       -0.0039
     17 C         144.5690  142.9589  164.7732 C.ar    1  UNL1       -0.0003
     18 C         144.7751  141.5198  164.4034 C.ar    1  UNL1       -0.0000
     19 C         143.7013  140.7729  163.6692 C.ar    1  UNL1       -0.0003
     20 C         142.4213  141.4650  163.3048 C.ar    1  UNL1       -0.0039
     21 C         137.3527  143.4738  164.3531 C.3     1  UNL1        0.0786
     22 C         138.5907  144.3206  164.3703 C.2     1  UNL1        0.1887
     23 O         138.8423  145.2582  165.5138 O.2     1  UNL1       -0.2900
     24 C         140.5619  143.3162  164.7359 C.3     1  UNL1        0.0130
     25 C         140.3930  141.9008  165.2029 C.3     1  UNL1        0.0181
     26 C         140.0896  141.6178  166.6443 C.3     1  UNL1        0.0723
     27 N         141.0171  142.1085  167.7163 N.3     1  UNL1       -0.2685
     28 C         140.4738  142.8780  168.8836 C.3     1  UNL1        0.1046
     29 C         141.4012  143.3687  169.9556 C.3     1  UNL1        0.1595
     30 O         142.8720  143.0899  169.8602 O.3     1  UNL1       -0.3508
     31 C         143.4154  142.3204  168.6929 C.3     1  UNL1        0.1595
     32 C         142.4879  141.8297  167.6209 C.3     1  UNL1        0.1046
@<TRIPOS>BOND
     1    21    22    1
     2    22    23    2
     3    22     1    1
     4     1     2    2
     5     2     3    1
     6     3     4    1
     7     4     5   ar
     8     5     6   ar
     9     6     7    1
    10     6     8   ar
    11     8     9   ar
    12     9    10   ar
    13    10    11    1
    14    11    12    1
    15    13    12    1
    16    13    14    1
    17    14    24    1
    18    24    25    1
    19    25    26    1
    20    26    27    1
    21    27    28    1
    22    28    29    1
    23    29    30    1
    24    30    31    1
    25    31    32    1
    26    14    15    1
    27    15    16   ar
    28    16    17   ar
    29    17    18   ar
    30    18    19   ar
    31    19    20   ar
    32    14     1    1
    33    32    27    1
    34    20    15   ar
    35    13     3    1
    36    10     4   ar
@<TRIPOS>MOLECULE
*****
 32 36 0 0 0
SMALL
GASTEIGER

@<TRIPOS>ATOM
      1 C         139.4839  143.9315  163.2149 C.2     1  UNL1        0.1157
      2 N         139.3147  144.5945  161.8800 N.2     1  UNL1       -0.1790
      3 N         140.5488  144.3276  161.0703 N.pl3   1  UNL1       -0.2061
      4 C         140.9444  144.7316  159.6809 C.ar    1  UNL1        0.1038
      5 C         140.0125  145.5595  158.8466 C.ar    1  UNL1        0.0308
      6 C         140.4081  145.9635  157.4572 C.ar    1  UNL1        0.0592
      7 CL        139.4762  146.7914  156.6229 Cl      1  UNL1       -0.0822
      8 C         141.7356  145.5395  156.9022 C.ar    1  UNL1        0.0146
      9 C         142.6675  144.7116  157.7365 C.ar    1  UNL1        0.0391
     10 C         142.2719  144.3077  159.1259 C.ar    1  UNL1        0.1536
     11 O         143.2038  143.4797  159.9602 O.3     1  UNL1       -0.4723
     12 C         142.8082  143.0758  161.3496 C.3     1  UNL1        0.2277
     13 C         141.4807  143.4997  161.9046 C.3     1  UNL1        0.1488
     14 C         140.8225  143.2549  163.2301 C.3     1  UNL1        0.0806
     15 C         142.0785  142.4938  163.5357 C.ar    1  UNL1       -0.0157
     16 C         142.2536  141.0969  163.0181 C.ar    1  UNL1       -0.0039
     17 C         143.5096  140.3358  163.3237 C.ar    1  UNL1       -0.0003
     18 C         144.5904  140.9717  164.1469 C.ar    1  UNL1       -0.0000
     19 C         144.4152  142.3686  164.6645 C.ar    1  UNL1       -0.0003
     20 C         143.1592  143.1297  164.3589 C.ar    1  UNL1       -0.0039
     21 C         138.6362  144.9270  165.4600 C.3     1  UNL1        0.0786
     22 C         138.4890  143.9430  164.3375 C.2     1  UNL1        0.1887
     23 O         137.3469  142.9706  164.3375 O.2     1  UNL1       -0.2900
     24 C         140.4269  142.8509  164.6195 C.3     1  UNL1        0.0130
     25 C         140.1460  141.4106  164.9304 C.3     1  UNL1        0.0181
     26 C         139.7429  141.0078  166.3179 C.3     1  UNL1        0.0723
     27 N         140.7411  140.3583  167.2301 N.3     1  UNL1       -0.2685
     28 C         141.9767  139.7261  166.6613 C.3     1  UNL1        0.1046
     29 C         142.9748  139.0767  167.5735 C.3     1  UNL1        0.1595
     30 O         142.7373  139.0595  169.0545 O.3     1  UNL1       -0.3508
     31 C         141.5016  139.6917  169.6233 C.3     1  UNL1        0.1595
     32 C         140.5035  140.3411  168.7111 C.3     1  UNL1        0.1046
@<TRIPOS>BOND
     1    21    22    1
     2    22    23    2
     3    22     1    1
     4     1     2    2
     5     2     3    1
     6     3     4    1
     7     4     5   ar
     8     5     6   ar
     9     6     7    1
    10     6     8   ar
    11     8     9   ar
    12     9    10   ar
    13    10    11    1
    14    11    12    1
    15    13    12    1
    16    13    14    1
    17    14    24    1
    18    24    25    1
    19    25    26    1
    20    26    27    1
    21    27    28    1
    22    28    29    1
    23    29    30    1
    24    30    31    1
    25    31    32    1
    26    14    15    1
    27    15    16   ar
    28    16    17   ar
    29    17    18   ar
    30    18    19   ar
    31    19    20   ar
    32    14     1    1
    33    32    27    1
    34    20    15   ar
    35    13     3    1
    36    10     4   ar
@<TRIPOS>MOLECULE
*****
 32 36 0 0 0
SMALL
GASTEIGER

@<TRIPOS>ATOM
      1 C         140.6038  138.8036  164.0882 C.2     1  UNL1        0.1157
      2 N         139.8687  138.9017  165.3921 N.2     1  UNL1       -0.1790
      3 N         140.5721  139.9150  166.2455 N.pl3   1  UNL1       -0.2061
      4 C         140.2985  140.4250  167.6294 C.ar    1  UNL1        0.1038
      5 C         139.1289  139.8968  168.4058 C.ar    1  UNL1        0.0308
      6 C         138.8554  140.4068  169.7896 C.ar    1  UNL1        0.0592
      7 CL        137.6856  139.8786  170.5661 Cl      1  UNL1       -0.0822
      8 C         139.7515  141.4451  170.3970 C.ar    1  UNL1        0.0146
      9 C         140.9212  141.9733  169.6207 C.ar    1  UNL1        0.0391
     10 C         141.1947  141.4633  168.2368 C.ar    1  UNL1        0.1536
     11 O         142.3644  141.9915  167.4604 O.3     1  UNL1       -0.4723
     12 C         142.6379  141.4815  166.0765 C.3     1  UNL1        0.2277
     13 C         141.7418  140.4432  165.4691 C.3     1  UNL1        0.1488
     14 C         141.7613  139.7563  164.1358 C.3     1  UNL1        0.0806
     15 C         142.9761  140.6025  163.8941 C.ar    1  UNL1       -0.0157
     16 C         144.3451  140.0024  164.0196 C.ar    1  UNL1       -0.0039
     17 C         145.5599  140.8485  163.7779 C.ar    1  UNL1       -0.0003
     18 C         145.4057  142.2947  163.4107 C.ar    1  UNL1       -0.0000
     19 C         144.0367  142.8947  163.2852 C.ar    1  UNL1       -0.0003
     20 C         142.8219  142.0486  163.5269 C.ar    1  UNL1       -0.0039
     21 C         138.9012  138.0350  162.2824 C.3     1  UNL1        0.0786
     22 C         140.2443  137.9097  162.9385 C.2     1  UNL1        0.1887
     23 O         141.2279  136.8904  162.4449 O.2     1  UNL1       -0.2900
     24 C         142.0349  139.2463  162.7519 C.3     1  UNL1        0.0130
     25 C         142.1557  140.2091  161.6080 C.3     1  UNL1        0.0181
     26 C         140.9492  140.5508  160.7849 C.3     1  UNL1        0.0723
     27 N         140.1555  141.7855  161.0941 N.3     1  UNL1       -0.2685
     28 C         138.8530  141.6751  161.8299 C.3     1  UNL1        0.1046
     29 C         138.0593  142.9097  162.1392 C.3     1  UNL1        0.1595
     30 O         138.5680  144.2549  161.7125 O.3     1  UNL1       -0.3508
     31 C         139.8704  144.3653  160.9767 C.3     1  UNL1        0.1595
     32 C         140.6642  143.1306  160.6675 C.3     1  UNL1        0.1046
@<TRIPOS>BOND
     1    21    22    1
     2    22    23    2
     3    22     1    1
     4     1     2    2
     5     2     3    1
     6     3     4    1
     7     4     5   ar
     8     5     6   ar
     9     6     7    1
    10     6     8   ar
    11     8     9   ar
    12     9    10   ar
    13    10    11    1
    14    11    12    1
    15    13    12    1
    16    13    14    1
    17    14    24    1
    18    24    25    1
    19    25    26    1
    20    26    27    1
    21    27    28    1
    22    28    29    1
    23    29    30    1
    24    30    31    1
    25    31    32    1
    26    14    15    1
    27    15    16   ar
    28    16    17   ar
    29    17    18   ar
    30    18    19   ar
    31    19    20   ar
    32    14     1    1
    33    32    27    1
    34    20    15   ar
    35    13     3    1
    36    10     4   ar
@<TRIPOS>MOLECULE
*****
 32 36 0 0 0
SMALL
GASTEIGER

@<TRIPOS>ATOM
      1 C         143.6833  139.6963  163.0243 C.2     1  UNL1        0.1157
      2 N         143.7784  139.3751  161.5622 N.2     1  UNL1       -0.1790
      3 N         142.3894  139.1363  161.0489 N.pl3   1  UNL1       -0.2061
      4 C         141.8697  138.7831  159.6867 C.ar    1  UNL1        0.1038
      5 C         142.8233  138.6096  158.5420 C.ar    1  UNL1        0.0308
      6 C         142.3036  138.2565  157.1799 C.ar    1  UNL1        0.0592
      7 CL        143.2572  138.0829  156.0351 Cl      1  UNL1       -0.0822
      8 C         140.8303  138.0769  156.9627 C.ar    1  UNL1        0.0146
      9 C         139.8767  138.2505  158.1075 C.ar    1  UNL1        0.0391
     10 C         140.3965  138.6036  159.4695 C.ar    1  UNL1        0.1536
     11 O         139.4429  138.7771  160.6144 O.3     1  UNL1       -0.4723
     12 C         139.9626  139.1303  161.9764 C.3     1  UNL1        0.2277
     13 C         141.4359  139.3098  162.1936 C.3     1  UNL1        0.1488
     14 C         142.2355  139.6560  163.4146 C.3     1  UNL1        0.0806
     15 C         140.8964  139.6894  164.0895 C.ar    1  UNL1       -0.0157
     16 C         140.0221  140.9015  163.9615 C.ar    1  UNL1       -0.0039
     17 C         138.6829  140.9350  164.6365 C.ar    1  UNL1       -0.0003
     18 C         138.2181  139.7564  165.4395 C.ar    1  UNL1       -0.0000
     19 C         139.0924  138.5444  165.5676 C.ar    1  UNL1       -0.0003
     20 C         140.4316  138.5108  164.8926 C.ar    1  UNL1       -0.0039
     21 C         145.5816  141.2961  163.7907 C.3     1  UNL1        0.0786
     22 C         144.8340  140.0039  163.9362 C.2     1  UNL1        0.1887
     23 O         145.2371  139.0192  164.9934 O.2     1  UNL1       -0.2900
     24 C         142.7553  140.0091  164.7767 C.3     1  UNL1        0.0130
     25 C         142.4565  141.3550  165.3677 C.3     1  UNL1        0.0181
     26 C         142.7561  141.6227  166.8128 C.3     1  UNL1        0.0723
     27 N         141.9536  140.9443  167.8834 N.3     1  UNL1       -0.2685
     28 C         140.4669  141.1348  167.9405 C.3     1  UNL1        0.1046
     29 C         139.6644  140.4565  169.0110 C.3     1  UNL1        0.1595
     30 O         140.3487  139.5876  170.0243 O.3     1  UNL1       -0.3508
     31 C         141.8355  139.3971  169.9672 C.3     1  UNL1        0.1595
     32 C         142.6379  140.0755  168.8967 C.3     1  UNL1        0.1046
@<TRIPOS>BOND
     1    21    22    1
     2    22    23    2
     3    22     1    1
     4     1     2    2
     5     2     3    1
     6     3     4    1
     7     4     5   ar
     8     5     6   ar
     9     6     7    1
    10     6     8   ar
    11     8     9   ar
    12     9    10   ar
    13    10    11    1
    14    11    12    1
    15    13    12    1
    16    13    14    1
    17    14    24    1
    18    24    25    1
    19    25    26    1
    20    26    27    1
    21    27    28    1
    22    28    29    1
    23    29    30    1
    24    30    31    1
    25    31    32    1
    26    14    15    1
    27    15    16   ar
    28    16    17   ar
    29    17    18   ar
    30    18    19   ar
    31    19    20   ar
    32    14     1    1
    33    32    27    1
    34    20    15   ar
    35    13     3    1
    36    10     4   ar
@<TRIPOS>MOLECULE
*****
 32 36 0 0 0
SMALL
GASTEIGER

@<TRIPOS>ATOM
      1 C         139.9511  143.3399  163.4553 C.2     1  UNL1        0.1157
      2 N         139.7444  144.0817  162.1680 N.2     1  UNL1       -0.1790
      3 N         140.9194  143.8024  161.2784 N.pl3   1  UNL1       -0.2061
      4 C         141.2604  144.2627  159.8921 C.ar    1  UNL1        0.1038
      5 C         140.3276  145.1771  159.1547 C.ar    1  UNL1        0.0308
      6 C         140.6687  145.6373  157.7684 C.ar    1  UNL1        0.0592
      7 CL        139.7359  146.5517  157.0309 Cl      1  UNL1       -0.0822
      8 C         141.9425  145.1831  157.1195 C.ar    1  UNL1        0.0146
      9 C         142.8753  144.2687  157.8569 C.ar    1  UNL1        0.0391
     10 C         142.5343  143.8085  159.2432 C.ar    1  UNL1        0.1536
     11 O         143.4671  142.8941  159.9806 O.3     1  UNL1       -0.4723
     12 C         143.1260  142.4339  161.3669 C.3     1  UNL1        0.2277
     13 C         141.8522  142.8881  162.0158 C.3     1  UNL1        0.1488
     14 C         141.2537  142.6022  163.3612 C.3     1  UNL1        0.0806
     15 C         142.4851  141.7683  163.5570 C.ar    1  UNL1       -0.0157
     16 C         142.4185  140.2800  163.3824 C.ar    1  UNL1       -0.0039
     17 C         143.6499  139.4460  163.5782 C.ar    1  UNL1       -0.0003
     18 C         144.9478  140.1003  163.9485 C.ar    1  UNL1       -0.0000
     19 C         145.0144  141.5887  164.1230 C.ar    1  UNL1       -0.0003
     20 C         143.7830  142.4227  163.9273 C.ar    1  UNL1       -0.0039
     21 C         138.8272  144.5847  165.4396 C.3     1  UNL1        0.0786
     22 C         139.0187  143.3364  164.6304 C.2     1  UNL1        0.1887
     23 O         138.2777  142.0845  164.9961 O.2     1  UNL1       -0.2900
     24 C         140.9127  142.1419  164.7476 C.3     1  UNL1        0.0130
     25 C         141.7615  142.5669  165.9090 C.3     1  UNL1        0.0181
     26 C         141.9559  141.6422  167.0739 C.3     1  UNL1        0.0723
     27 N         141.0218  141.7058  168.2459 N.3     1  UNL1       -0.2685
     28 C         140.1552  140.5277  168.5790 C.3     1  UNL1        0.1046
     29 C         139.2212  140.5912  169.7510 C.3     1  UNL1        0.1595
     30 O         139.1538  141.8329  170.5900 O.3     1  UNL1       -0.3508
     31 C         140.0205  143.0110  170.2569 C.3     1  UNL1        0.1595
     32 C         140.9545  142.9474  169.0848 C.3     1  UNL1        0.1046
@<TRIPOS>BOND
     1    21    22    1
     2    22    23    2
     3    22     1    1
     4     1     2    2
     5     2     3    1
     6     3     4    1
     7     4     5   ar
     8     5     6   ar
     9     6     7    1
    10     6     8   ar
    11     8     9   ar
    12     9    10   ar
    13    10    11    1
    14    11    12    1
    15    13    12    1
    16    13    14    1
    17    14    24    1
    18    24    25    1
    19    25    26    1
    20    26    27    1
    21    27    28    1
    22    28    29    1
    23    29    30    1
    24    30    31    1
    25    31    32    1
    26    14    15    1
    27    15    16   ar
    28    16    17   ar
    29    17    18   ar
    30    18    19   ar
    31    19    20   ar
    32    14     1    1
    33    32    27    1
    34    20    15   ar
    35    13     3    1
    36    10     4   ar
@<TRIPOS>MOLECULE
*****
 32 36 0 0 0
SMALL
GASTEIGER

@<TRIPOS>ATOM
      1 C         143.5637  140.9799  163.7748 C.2     1  UNL1        0.1157
      2 N         143.5633  140.2769  165.1000 N.2     1  UNL1       -0.1790
      3 N         142.4527  140.8509  165.9287 N.pl3   1  UNL1       -0.2061
      4 C         141.9773  140.5471  167.3187 C.ar    1  UNL1        0.1038
      5 C         142.6634  139.4895  168.1315 C.ar    1  UNL1        0.0308
      6 C         142.1881  139.1857  169.5213 C.ar    1  UNL1        0.0592
      7 CL        142.8741  138.1280  170.3343 Cl      1  UNL1       -0.0822
      8 C         141.0267  139.9395  170.0984 C.ar    1  UNL1        0.0146
      9 C         140.3406  140.9971  169.2855 C.ar    1  UNL1        0.0391
     10 C         140.8160  141.3009  167.8957 C.ar    1  UNL1        0.1536
     11 O         140.1299  142.3586  167.0827 O.3     1  UNL1       -0.4723
     12 C         140.6052  142.6623  165.6929 C.3     1  UNL1        0.2277
     13 C         141.7666  141.9085  165.1159 C.3     1  UNL1        0.1488
     14 C         142.4533  141.9882  163.7847 C.3     1  UNL1        0.0806
     15 C         141.4422  143.0601  163.5040 C.ar    1  UNL1       -0.0157
     16 C         140.0295  142.6879  163.1639 C.ar    1  UNL1       -0.0039
     17 C         139.0183  143.7598  162.8831 C.ar    1  UNL1       -0.0003
     18 C         139.4200  145.2038  162.9425 C.ar    1  UNL1       -0.0000
     19 C         140.8327  145.5760  163.2826 C.ar    1  UNL1       -0.0003
     20 C         141.8439  144.5041  163.5633 C.ar    1  UNL1       -0.0039
     21 C         144.3300  139.5051  161.7778 C.3     1  UNL1        0.0786
     22 C         144.5087  140.7200  162.6392 C.2     1  UNL1        0.1887
     23 O         145.6325  141.6751  162.3651 O.2     1  UNL1       -0.2900
     24 C         142.9286  142.2920  162.3948 C.3     1  UNL1        0.0130
     25 C         142.0575  141.9698  161.2170 C.3     1  UNL1        0.0181
     26 C         142.5179  142.3055  159.8295 C.3     1  UNL1        0.0723
     27 N         142.0097  143.5421  159.1492 N.3     1  UNL1       -0.2685
     28 C         140.8229  144.2707  159.7065 C.3     1  UNL1        0.1046
     29 C         140.3147  145.5072  159.0264 C.3     1  UNL1        0.1595
     30 O         140.9934  146.0153  157.7888 O.3     1  UNL1       -0.3508
     31 C         142.1802  145.2867  157.2315 C.3     1  UNL1        0.1595
     32 C         142.6884  144.0500  157.9118 C.3     1  UNL1        0.1046
@<TRIPOS>BOND
     1    21    22    1
     2    22    23    2
     3    22     1    1
     4     1     2    2
     5     2     3    1
     6     3     4    1
     7     4     5   ar
     8     5     6   ar
     9     6     7    1
    10     6     8   ar
    11     8     9   ar
    12     9    10   ar
    13    10    11    1
    14    11    12    1
    15    13    12    1
    16    13    14    1
    17    14    24    1
    18    24    25    1
    19    25    26    1
    20    26    27    1
    21    27    28    1
    22    28    29    1
    23    29    30    1
    24    30    31    1
    25    31    32    1
    26    14    15    1
    27    15    16   ar
    28    16    17   ar
    29    17    18   ar
    30    18    19   ar
    31    19    20   ar
    32    14     1    1
    33    32    27    1
    34    20    15   ar
    35    13     3    1
    36    10     4   ar
@<TRIPOS>MOLECULE
*****
 32 36 0 0 0
SMALL
GASTEIGER

@<TRIPOS>ATOM
      1 C         139.4546  139.2502  162.8644 C.2     1  UNL1        0.1157
      2 N         139.3203  139.0763  161.3806 N.2     1  UNL1       -0.1790
      3 N         139.0681  140.4259  160.7767 N.pl3   1  UNL1       -0.2061
      4 C         138.8552  140.8672  159.3589 C.ar    1  UNL1        0.1038
      5 C         138.8767  139.8592  158.2484 C.ar    1  UNL1        0.0308
      6 C         138.6639  140.3005  156.8307 C.ar    1  UNL1        0.0592
      7 CL        138.6854  139.2924  155.7201 Cl      1  UNL1       -0.0822
      8 C         138.4296  141.7499  156.5236 C.ar    1  UNL1        0.0146
      9 C         138.4081  142.7579  157.6341 C.ar    1  UNL1        0.0391
     10 C         138.6209  142.3166  159.0518 C.ar    1  UNL1        0.1536
     11 O         138.5994  143.3247  160.1624 O.3     1  UNL1       -0.4723
     12 C         138.8123  142.8834  161.5800 C.3     1  UNL1        0.2277
     13 C         139.0466  141.4340  161.8872 C.3     1  UNL1        0.1488
     14 C         139.2855  140.7073  163.1775 C.3     1  UNL1        0.0806
     15 C         139.1609  142.0722  163.7870 C.ar    1  UNL1       -0.0157
     16 C         137.8464  142.5249  164.3502 C.ar    1  UNL1       -0.0039
     17 C         137.7217  143.8899  164.9597 C.ar    1  UNL1       -0.0003
     18 C         138.9116  144.8021  165.0061 C.ar    1  UNL1       -0.0000
     19 C         140.2261  144.3494  164.4429 C.ar    1  UNL1       -0.0003
     20 C         140.3507  142.9845  163.8334 C.ar    1  UNL1       -0.0039
     21 C         141.0303  137.4415  163.8625 C.3     1  UNL1        0.0786
     22 C         139.7128  138.1585  163.8603 C.2     1  UNL1        0.1887
     23 O         138.6535  137.7840  164.8540 O.2     1  UNL1       -0.2900
     24 C         139.4984  140.2660  164.5953 C.3     1  UNL1        0.0130
     25 C         140.7319  140.6905  165.3357 C.3     1  UNL1        0.0181
     26 C         140.9776  140.1945  166.7299 C.3     1  UNL1        0.0723
     27 N         140.5645  141.0284  167.9063 N.3     1  UNL1       -0.2685
     28 C         139.8765  140.3877  169.0751 C.3     1  UNL1        0.1046
     29 C         139.4633  141.2215  170.2515 C.3     1  UNL1        0.1595
     30 O         139.7382  142.6961  170.2592 O.3     1  UNL1       -0.3508
     31 C         140.4262  143.3369  169.0904 C.3     1  UNL1        0.1595
     32 C         140.8393  142.5030  167.9139 C.3     1  UNL1        0.1046
@<TRIPOS>BOND
     1    21    22    1
     2    22    23    2
     3    22     1    1
     4     1     2    2
     5     2     3    1
     6     3     4    1
     7     4     5   ar
     8     5     6   ar
     9     6     7    1
    10     6     8   ar
    11     8     9   ar
    12     9    10   ar
    13    10    11    1
    14    11    12    1
    15    13    12    1
    16    13    14    1
    17    14    24    1
    18    24    25    1
    19    25    26    1
    20    26    27    1
    21    27    28    1
    22    28    29    1
    23    29    30    1
    24    30    31    1
    25    31    32    1
    26    14    15    1
    27    15    16   ar
    28    16    17   ar
    29    17    18   ar
    30    18    19   ar
    31    19    20   ar
    32    14     1    1
    33    32    27    1
    34    20    15   ar
    35    13     3    1
    36    10     4   ar
@<TRIPOS>MOLECULE
*****
 32 36 0 0 0
SMALL
GASTEIGER

@<TRIPOS>ATOM
      1 C         143.3803  140.7103  163.6802 C.2     1  UNL1        0.1157
      2 N         143.4176  140.0448  165.0240 N.2     1  UNL1       -0.1790
      3 N         142.3997  140.7126  165.9003 N.pl3   1  UNL1       -0.2061
      4 C         141.9935  140.4781  167.3251 C.ar    1  UNL1        0.1038
      5 C         142.6599  139.3999  168.1272 C.ar    1  UNL1        0.0308
      6 C         142.2537  139.1655  169.5520 C.ar    1  UNL1        0.0592
      7 CL        142.9201  138.0873  170.3542 Cl      1  UNL1       -0.0822
      8 C         141.1811  140.0092  170.1746 C.ar    1  UNL1        0.0146
      9 C         140.5147  141.0874  169.3725 C.ar    1  UNL1        0.0391
     10 C         140.9209  141.3218  167.9477 C.ar    1  UNL1        0.1536
     11 O         140.2545  142.4000  167.1455 O.3     1  UNL1       -0.4723
     12 C         140.6607  142.6344  165.7208 C.3     1  UNL1        0.2277
     13 C         141.7333  141.7907  165.0981 C.3     1  UNL1        0.1488
     14 C         142.3393  141.7893  163.7260 C.3     1  UNL1        0.0806
     15 C         141.3833  142.9174  163.4740 C.ar    1  UNL1       -0.0157
     16 C         139.9251  142.6327  163.2675 C.ar    1  UNL1       -0.0039
     17 C         138.9690  143.7607  163.0155 C.ar    1  UNL1       -0.0003
     18 C         139.4712  145.1735  162.9699 C.ar    1  UNL1       -0.0000
     19 C         140.9293  145.4582  163.1764 C.ar    1  UNL1       -0.0003
     20 C         141.8854  144.3301  163.4284 C.ar    1  UNL1       -0.0039
     21 C         144.0570  139.0366  161.8118 C.3     1  UNL1        0.0786
     22 C         144.2341  140.3585  162.4981 C.2     1  UNL1        0.1887
     23 O         145.2651  141.3288  162.0023 O.2     1  UNL1       -0.2900
     24 C         142.7455  142.0238  162.3012 C.3     1  UNL1        0.0130
     25 C         141.7120  142.0072  161.2142 C.3     1  UNL1        0.0181
     26 C         141.3669  140.7192  160.5272 C.3     1  UNL1        0.0723
     27 N         140.1793  139.9225  160.9799 N.3     1  UNL1       -0.2685
     28 C         138.8070  140.2771  160.4889 C.3     1  UNL1        0.1046
     29 C         137.6194  139.4805  160.9415 C.3     1  UNL1        0.1595
     30 O         137.8040  138.3291  161.8851 O.3     1  UNL1       -0.3508
     31 C         139.1763  137.9745  162.3762 C.3     1  UNL1        0.1595
     32 C         140.3639  138.7713  161.9235 C.3     1  UNL1        0.1046
@<TRIPOS>BOND
     1    21    22    1
     2    22    23    2
     3    22     1    1
     4     1     2    2
     5     2     3    1
     6     3     4    1
     7     4     5   ar
     8     5     6   ar
     9     6     7    1
    10     6     8   ar
    11     8     9   ar
    12     9    10   ar
    13    10    11    1
    14    11    12    1
    15    13    12    1
    16    13    14    1
    17    14    24    1
    18    24    25    1
    19    25    26    1
    20    26    27    1
    21    27    28    1
    22    28    29    1
    23    29    30    1
    24    30    31    1
    25    31    32    1
    26    14    15    1
    27    15    16   ar
    28    16    17   ar
    29    17    18   ar
    30    18    19   ar
    31    19    20   ar
    32    14     1    1
    33    32    27    1
    34    20    15   ar
    35    13     3    1
    36    10     4   ar
