@<TRIPOS>MOLECULE
*****
 24 27 0 0 0
SMALL
GASTEIGER

@<TRIPOS>ATOM
      1 N         143.2998  143.7796  171.4007 N.pl3   1  UNL1       -0.3375
      2 C         142.7217  142.9826  170.2690 C.ar    1  UNL1        0.1567
      3 N         143.4135  142.6519  168.9798 N.ar    1  UNL1       -0.2245
      4 C         142.4697  141.8414  168.1419 C.ar    1  UNL1        0.0889
      5 C         142.6066  141.2363  166.7762 C.ar    1  UNL1        0.0151
      6 C         141.4683  140.4610  166.1818 C.ar    1  UNL1       -0.0232
      7 C         140.1932  140.2908  166.9531 C.ar    1  UNL1       -0.0241
      8 C         140.0562  140.8959  168.3187 C.ar    1  UNL1        0.0035
      9 C         141.1944  141.6712  168.9132 C.ar    1  UNL1        0.0494
     10 S         141.3502  142.3765  170.2278 S.2     1  UNL1       -0.0520
     11 C         138.9461  139.5616  166.5492 C.3     1  UNL1        0.0434
     12 C         138.6662  138.8225  165.2742 C.3     1  UNL1        0.0771
     13 N         139.5643  138.6301  164.0884 N.3     1  UNL1       -0.2683
     14 C         140.9641  139.1292  163.8845 C.3     1  UNL1        0.0771
     15 C         141.8114  139.9440  164.8161 C.3     1  UNL1        0.0434
     16 H         144.2143  144.1379  171.3336 H       1  UNL1        0.1442
     17 H         142.7647  143.9444  172.2104 H       1  UNL1        0.1442
     18 C         138.9862  137.8331  162.9567 C.3     1  UNL1        0.1007
     19 C         138.8453  138.4529  161.5980 C.ar    1  UNL1        0.0130
     20 C         139.9542  138.3239  160.5962 C.ar    1  UNL1        0.0002
     21 C         139.8134  138.9436  159.2375 C.ar    1  UNL1        0.0204
     22 C         138.5636  139.6925  158.8807 C.ar    1  UNL1        0.0989
     23 N         137.4546  139.8215  159.8825 N.ar    1  UNL1       -0.2426
     24 C         137.5955  139.2017  161.2411 C.ar    1  UNL1        0.0959
@<TRIPOS>BOND
     1     1     2    1
     2     2     3   ar
     3     3     4   ar
     4     4     5   ar
     5     5     6   ar
     6     6     7   ar
     7     7     8   ar
     8     8     9   ar
     9     9    10   ar
    10     7    11    1
    11    11    12    1
    12    12    13    1
    13    13    18    1
    14    18    19    1
    15    19    20   ar
    16    20    21   ar
    17    21    22   ar
    18    22    23   ar
    19    23    24   ar
    20    13    14    1
    21    14    15    1
    22    10     2   ar
    23    24    19   ar
    24     9     4   ar
    25    15     6    1
    26     1    16    1
    27     1    17    1
@<TRIPOS>MOLECULE
*****
 24 27 0 0 0
SMALL
GASTEIGER

@<TRIPOS>ATOM
      1 N         143.4212  143.9631  171.4128 N.pl3   1  UNL1       -0.3375
      2 C         142.8202  143.1479  170.3062 C.ar    1  UNL1        0.1567
      3 N         141.4699  143.3597  169.6883 N.ar    1  UNL1       -0.2245
      4 C         141.2793  142.3205  168.6236 C.ar    1  UNL1        0.0889
      5 C         140.1426  142.0416  167.6854 C.ar    1  UNL1        0.0151
      6 C         140.2385  140.9086  166.7070 C.ar    1  UNL1       -0.0232
      7 C         141.4709  140.0546  166.6668 C.ar    1  UNL1       -0.0241
      8 C         142.6076  140.3335  167.6050 C.ar    1  UNL1        0.0035
      9 C         142.5118  141.4665  168.5834 C.ar    1  UNL1        0.0494
     10 S         143.4641  141.9779  169.6233 S.2     1  UNL1       -0.0520
     11 C         141.7696  138.8848  165.7766 C.3     1  UNL1        0.0434
     12 C         140.9094  138.2801  164.7067 C.3     1  UNL1        0.0771
     13 N         139.5383  138.6959  164.2629 N.3     1  UNL1       -0.2683
     14 C         138.6885  139.8190  164.7792 C.3     1  UNL1        0.0771
     15 C         139.0001  140.8038  165.8669 C.3     1  UNL1        0.0434
     16 H         142.9178  144.7160  171.7988 H       1  UNL1        0.1442
     17 H         144.3189  143.7452  171.7531 H       1  UNL1        0.1442
     18 C         138.9374  137.8807  163.1564 C.3     1  UNL1        0.1007
     19 C         138.9298  138.4109  161.7531 C.ar    1  UNL1        0.0130
     20 C         140.1278  138.2165  160.8715 C.ar    1  UNL1        0.0002
     21 C         140.1203  138.7466  159.4684 C.ar    1  UNL1        0.0204
     22 C         138.9148  139.4710  158.9468 C.ar    1  UNL1        0.0989
     23 N         137.7168  139.6653  159.8284 N.ar    1  UNL1       -0.2426
     24 C         137.7243  139.1353  161.2315 C.ar    1  UNL1        0.0959
@<TRIPOS>BOND
     1     1     2    1
     2     2     3   ar
     3     3     4   ar
     4     4     5   ar
     5     5     6   ar
     6     6     7   ar
     7     7     8   ar
     8     8     9   ar
     9     9    10   ar
    10     7    11    1
    11    11    12    1
    12    12    13    1
    13    13    18    1
    14    18    19    1
    15    19    20   ar
    16    20    21   ar
    17    21    22   ar
    18    22    23   ar
    19    23    24   ar
    20    13    14    1
    21    14    15    1
    22    10     2   ar
    23    24    19   ar
    24     9     4   ar
    25    15     6    1
    26     1    16    1
    27     1    17    1
@<TRIPOS>MOLECULE
*****
 24 27 0 0 0
SMALL
GASTEIGER

@<TRIPOS>ATOM
      1 N         143.7119  139.7774  171.4412 N.pl3   1  UNL1       -0.3375
      2 C         142.9248  140.1534  170.2209 C.ar    1  UNL1        0.1567
      3 N         143.2394  141.2793  169.2810 N.ar    1  UNL1       -0.2245
      4 C         142.1940  141.2912  168.2055 C.ar    1  UNL1        0.0889
      5 C         141.9928  142.1761  167.0111 C.ar    1  UNL1        0.0151
      6 C         140.8307  141.9423  166.0918 C.ar    1  UNL1       -0.0232
      7 C         139.8700  140.8238  166.3669 C.ar    1  UNL1       -0.0241
      8 C         140.0712  139.9389  167.5612 C.ar    1  UNL1        0.0035
      9 C         141.2332  140.1726  168.4806 C.ar    1  UNL1        0.0494
     10 S         141.6849  139.4694  169.7262 S.2     1  UNL1       -0.0520
     11 C         138.6555  140.4203  165.5843 C.3     1  UNL1        0.0434
     12 C         138.1020  141.0358  164.3333 C.3     1  UNL1        0.0771
     13 N         138.6262  142.2066  163.5561 N.3     1  UNL1       -0.2683
     14 C         139.8333  143.0513  163.8377 C.3     1  UNL1        0.0771
     15 C         140.8145  142.9337  164.9662 C.3     1  UNL1        0.0434
     16 H         144.5163  140.2898  171.6854 H       1  UNL1        0.1442
     17 H         143.4240  139.0183  171.9981 H       1  UNL1        0.1442
     18 C         137.8391  142.5826  162.3357 C.3     1  UNL1        0.1007
     19 C         138.1254  141.9148  161.0234 C.ar    1  UNL1        0.0130
     20 C         138.8148  142.6753  159.9295 C.ar    1  UNL1        0.0002
     21 C         139.1011  142.0077  158.6173 C.ar    1  UNL1        0.0204
     22 C         138.6980  140.5794  158.3987 C.ar    1  UNL1        0.0989
     23 N         138.0087  139.8189  159.4926 N.ar    1  UNL1       -0.2426
     24 C         137.7224  140.4865  160.8049 C.ar    1  UNL1        0.0959
@<TRIPOS>BOND
     1     1     2    1
     2     2     3   ar
     3     3     4   ar
     4     4     5   ar
     5     5     6   ar
     6     6     7   ar
     7     7     8   ar
     8     8     9   ar
     9     9    10   ar
    10     7    11    1
    11    11    12    1
    12    12    13    1
    13    13    18    1
    14    18    19    1
    15    19    20   ar
    16    20    21   ar
    17    21    22   ar
    18    22    23   ar
    19    23    24   ar
    20    13    14    1
    21    14    15    1
    22    10     2   ar
    23    24    19   ar
    24     9     4   ar
    25    15     6    1
    26     1    16    1
    27     1    17    1
@<TRIPOS>MOLECULE
*****
 24 27 0 0 0
SMALL
GASTEIGER

@<TRIPOS>ATOM
      1 N         142.5694  140.6135  171.6198 N.pl3   1  UNL1       -0.3375
      2 C         142.1115  140.2642  170.2348 C.ar    1  UNL1        0.1567
      3 N         142.9748  139.7361  169.1276 N.ar    1  UNL1       -0.2245
      4 C         142.1067  139.5272  167.9224 C.ar    1  UNL1        0.0889
      5 C         142.4100  139.0252  166.5418 C.ar    1  UNL1        0.0151
      6 C         141.3134  138.9222  165.5234 C.ar    1  UNL1       -0.0232
      7 C         139.9137  139.3212  165.8857 C.ar    1  UNL1       -0.0241
      8 C         139.6103  139.8232  167.2662 C.ar    1  UNL1        0.0035
      9 C         140.7068  139.9262  168.2846 C.ar    1  UNL1        0.0494
     10 S         140.7098  140.3817  169.7138 S.2     1  UNL1       -0.0520
     11 C         138.6827  139.2968  165.0287 C.3     1  UNL1        0.0434
     12 C         138.5478  138.8675  163.5977 C.3     1  UNL1        0.0771
     13 N         139.6103  138.3565  162.6705 N.3     1  UNL1       -0.2683
     14 C         141.0702  138.1485  162.9451 C.3     1  UNL1        0.0771
     15 C         141.8282  138.4003  164.2147 C.3     1  UNL1        0.0434
     16 H         143.5154  140.5014  171.8685 H       1  UNL1        0.1442
     17 H         141.9240  140.9550  172.2802 H       1  UNL1        0.1442
     18 C         139.1523  138.0071  161.2855 C.3     1  UNL1        0.1007
     19 C         139.2172  139.0330  160.1930 C.ar    1  UNL1        0.0130
     20 C         140.4631  139.1740  159.3696 C.ar    1  UNL1        0.0002
     21 C         140.5280  140.1998  158.2772 C.ar    1  UNL1        0.0204
     22 C         139.3470  141.0845  158.0080 C.ar    1  UNL1        0.0989
     23 N         138.1010  140.9435  158.8314 N.ar    1  UNL1       -0.2426
     24 C         138.0362  139.9178  159.9238 C.ar    1  UNL1        0.0959
@<TRIPOS>BOND
     1     1     2    1
     2     2     3   ar
     3     3     4   ar
     4     4     5   ar
     5     5     6   ar
     6     6     7   ar
     7     7     8   ar
     8     8     9   ar
     9     9    10   ar
    10     7    11    1
    11    11    12    1
    12    12    13    1
    13    13    18    1
    14    18    19    1
    15    19    20   ar
    16    20    21   ar
    17    21    22   ar
    18    22    23   ar
    19    23    24   ar
    20    13    14    1
    21    14    15    1
    22    10     2   ar
    23    24    19   ar
    24     9     4   ar
    25    15     6    1
    26     1    16    1
    27     1    17    1
@<TRIPOS>MOLECULE
*****
 24 27 0 0 0
SMALL
GASTEIGER

@<TRIPOS>ATOM
      1 N         140.3496  142.4077  171.7267 N.pl3   1  UNL1       -0.3375
      2 C         140.1802  141.9493  170.3085 C.ar    1  UNL1        0.1567
      3 N         140.5280  142.7365  169.0799 N.ar    1  UNL1       -0.2245
      4 C         140.1960  141.8969  167.8821 C.ar    1  UNL1        0.0889
      5 C         140.3258  142.1529  166.4098 C.ar    1  UNL1        0.0151
      6 C         139.9026  141.1028  165.4258 C.ar    1  UNL1       -0.0232
      7 C         139.3497  139.7969  165.9140 C.ar    1  UNL1       -0.0241
      8 C         139.2199  139.5408  167.3863 C.ar    1  UNL1        0.0035
      9 C         139.6430  140.5908  168.3703 C.ar    1  UNL1        0.0494
     10 S         139.6333  140.6233  169.8700 S.2     1  UNL1       -0.0520
     11 C         138.8724  138.6241  165.1097 C.3     1  UNL1        0.0434
     12 C         138.8303  138.4678  163.6184 C.3     1  UNL1        0.0771
     13 N         139.2550  139.4456  162.5633 N.3     1  UNL1       -0.2683
     14 C         139.8268  140.8212  162.7386 C.3     1  UNL1        0.0771
     15 C         140.1150  141.5588  164.0126 C.3     1  UNL1        0.0434
     16 H         140.7195  143.3006  171.9146 H       1  UNL1        0.1442
     17 H         140.0909  141.8158  172.4696 H       1  UNL1        0.1442
     18 C         139.0856  138.9872  161.1451 C.3     1  UNL1        0.1007
     19 C         140.2847  138.5845  160.3387 C.ar    1  UNL1        0.0130
     20 C         141.5480  138.1663  161.0309 C.ar    1  UNL1        0.0002
     21 C         142.7470  137.7637  160.2246 C.ar    1  UNL1        0.0204
     22 C         142.6827  137.7790  158.7261 C.ar    1  UNL1        0.0989
     23 N         141.4193  138.1972  158.0338 N.ar    1  UNL1       -0.2426
     24 C         140.2203  138.5999  158.8401 C.ar    1  UNL1        0.0959
@<TRIPOS>BOND
     1     1     2    1
     2     2     3   ar
     3     3     4   ar
     4     4     5   ar
     5     5     6   ar
     6     6     7   ar
     7     7     8   ar
     8     8     9   ar
     9     9    10   ar
    10     7    11    1
    11    11    12    1
    12    12    13    1
    13    13    18    1
    14    18    19    1
    15    19    20   ar
    16    20    21   ar
    17    21    22   ar
    18    22    23   ar
    19    23    24   ar
    20    13    14    1
    21    14    15    1
    22    10     2   ar
    23    24    19   ar
    24     9     4   ar
    25    15     6    1
    26     1    16    1
    27     1    17    1
@<TRIPOS>MOLECULE
*****
 24 27 0 0 0
SMALL
GASTEIGER

@<TRIPOS>ATOM
      1 N         140.3284  146.3772  157.1890 N.pl3   1  UNL1       -0.3375
      2 C         140.3252  145.7317  158.5431 C.ar    1  UNL1        0.1567
      3 N         139.7882  146.3360  159.8066 N.ar    1  UNL1       -0.2245
      4 C         139.9895  145.3464  160.9157 C.ar    1  UNL1        0.0889
      5 C         139.6560  145.3953  162.3774 C.ar    1  UNL1        0.0151
      6 C         139.9840  144.2283  163.2609 C.ar    1  UNL1       -0.0232
      7 C         140.6454  143.0126  162.6829 C.ar    1  UNL1       -0.0241
      8 C         140.9790  142.9636  161.2213 C.ar    1  UNL1        0.0035
      9 C         140.6510  144.1305  160.3376 C.ar    1  UNL1        0.0494
     10 S         140.8584  144.3687  158.8713 S.2     1  UNL1       -0.0520
     11 C         141.0554  141.7498  163.3811 C.3     1  UNL1        0.0434
     12 C         140.9050  141.3911  164.8299 C.3     1  UNL1        0.0771
     13 N         140.3077  142.2065  165.9380 N.3     1  UNL1       -0.2683
     14 C         139.7131  143.5820  165.8714 C.3     1  UNL1        0.0771
     15 C         139.5690  144.4818  164.6800 C.3     1  UNL1        0.0434
     16 H         139.9535  147.2801  157.0732 H       1  UNL1        0.1442
     17 H         140.7054  145.8979  156.4161 H       1  UNL1        0.1442
     18 C         140.3045  141.5610  167.2921 C.3     1  UNL1        0.1007
     19 C         141.1781  142.1039  168.3839 C.ar    1  UNL1        0.0130
     20 C         142.6343  141.7464  168.4269 C.ar    1  UNL1        0.0002
     21 C         143.5079  142.2893  169.5186 C.ar    1  UNL1        0.0204
     22 C         142.9255  143.1897  170.5674 C.ar    1  UNL1        0.0989
     23 N         141.4693  143.5472  170.5244 N.ar    1  UNL1       -0.2426
     24 C         140.5957  143.0044  169.4327 C.ar    1  UNL1        0.0959
@<TRIPOS>BOND
     1     1     2    1
     2     2     3   ar
     3     3     4   ar
     4     4     5   ar
     5     5     6   ar
     6     6     7   ar
     7     7     8   ar
     8     8     9   ar
     9     9    10   ar
    10     7    11    1
    11    11    12    1
    12    12    13    1
    13    13    18    1
    14    18    19    1
    15    19    20   ar
    16    20    21   ar
    17    21    22   ar
    18    22    23   ar
    19    23    24   ar
    20    13    14    1
    21    14    15    1
    22    10     2   ar
    23    24    19   ar
    24     9     4   ar
    25    15     6    1
    26     1    16    1
    27     1    17    1
@<TRIPOS>MOLECULE
*****
 24 27 0 0 0
SMALL
GASTEIGER

@<TRIPOS>ATOM
      1 N         139.6441  139.1493  171.6099 N.pl3   1  UNL1       -0.3375
      2 C         140.0954  139.8073  170.3398 C.ar    1  UNL1        0.1567
      3 N         139.2625  140.0136  169.1094 N.ar    1  UNL1       -0.2245
      4 C         140.1113  140.7083  168.0862 C.ar    1  UNL1        0.0889
      5 C         139.8234  141.1667  166.6873 C.ar    1  UNL1        0.0151
      6 C         140.8931  141.8480  165.8862 C.ar    1  UNL1       -0.0232
      7 C         142.2504  142.0710  166.4841 C.ar    1  UNL1       -0.0241
      8 C         142.5384  141.6127  167.8830 C.ar    1  UNL1        0.0035
      9 C         141.4688  140.9313  168.6841 C.ar    1  UNL1        0.0494
     10 S         141.4590  140.3744  170.0769 S.2     1  UNL1       -0.0520
     11 C         143.4498  142.7245  165.8638 C.3     1  UNL1        0.0434
     12 C         143.5877  143.3164  164.4924 C.3     1  UNL1        0.0771
     13 N         142.5605  143.4009  163.4027 N.3     1  UNL1       -0.2683
     14 C         141.1416  142.9145  163.4151 C.3     1  UNL1        0.0771
     15 C         140.3995  142.2234  164.5204 C.3     1  UNL1        0.0434
     16 H         138.7244  138.8066  171.6869 H       1  UNL1        0.1442
     17 H         140.2676  139.0601  172.3666 H       1  UNL1        0.1442
     18 C         143.0119  144.0589  162.1325 C.3     1  UNL1        0.1007
     19 C         142.1254  144.0412  160.9225 C.ar    1  UNL1        0.0130
     20 C         141.1327  145.1443  160.7039 C.ar    1  UNL1        0.0002
     21 C         140.2463  145.1266  159.4940 C.ar    1  UNL1        0.0204
     22 C         140.3525  144.0058  158.5028 C.ar    1  UNL1        0.0989
     23 N         141.3452  142.9027  158.7214 N.ar    1  UNL1       -0.2426
     24 C         142.2316  142.9204  159.9313 C.ar    1  UNL1        0.0959
@<TRIPOS>BOND
     1     1     2    1
     2     2     3   ar
     3     3     4   ar
     4     4     5   ar
     5     5     6   ar
     6     6     7   ar
     7     7     8   ar
     8     8     9   ar
     9     9    10   ar
    10     7    11    1
    11    11    12    1
    12    12    13    1
    13    13    18    1
    14    18    19    1
    15    19    20   ar
    16    20    21   ar
    17    21    22   ar
    18    22    23   ar
    19    23    24   ar
    20    13    14    1
    21    14    15    1
    22    10     2   ar
    23    24    19   ar
    24     9     4   ar
    25    15     6    1
    26     1    16    1
    27     1    17    1
@<TRIPOS>MOLECULE
*****
 24 27 0 0 0
SMALL
GASTEIGER

@<TRIPOS>ATOM
      1 N         142.3287  142.4362  171.7167 N.pl3   1  UNL1       -0.3375
      2 C         142.5094  141.9834  170.2982 C.ar    1  UNL1        0.1567
      3 N         142.8666  142.8571  169.1323 N.ar    1  UNL1       -0.2245
      4 C         142.9425  141.9909  167.9101 C.ar    1  UNL1        0.0889
      5 C         143.2541  142.3032  166.4764 C.ar    1  UNL1        0.0151
      6 C         143.2554  141.2064  165.4531 C.ar    1  UNL1       -0.0232
      7 C         142.9451  139.7975  165.8634 C.ar    1  UNL1       -0.0241
      8 C         142.6335  139.4852  167.2971 C.ar    1  UNL1        0.0035
      9 C         142.6322  140.5819  168.3204 C.ar    1  UNL1        0.0494
     10 S         142.3645  140.5772  169.7963 S.2     1  UNL1       -0.0520
     11 C         142.8929  138.5648  165.0102 C.3     1  UNL1        0.0434
     12 C         143.1380  138.4369  163.5359 C.3     1  UNL1        0.0771
     13 N         143.4959  139.5098  162.5508 N.3     1  UNL1       -0.2683
     14 C         143.6971  140.9758  162.7965 C.3     1  UNL1        0.0771
     15 C         143.5901  141.7309  164.0882 C.3     1  UNL1        0.0434
     16 H         142.4458  143.3858  171.9490 H       1  UNL1        0.1442
     17 H         142.0931  141.7840  172.4155 H       1  UNL1        0.1442
     18 C         143.6766  139.0569  161.1322 C.3     1  UNL1        0.1007
     19 C         142.4824  138.8926  160.2394 C.ar    1  UNL1        0.0130
     20 C         141.1022  139.1084  160.7859 C.ar    1  UNL1        0.0002
     21 C         139.9080  138.9441  159.8932 C.ar    1  UNL1        0.0204
     22 C         140.0940  138.5641  158.4541 C.ar    1  UNL1        0.0989
     23 N         141.4743  138.3483  157.9077 N.ar    1  UNL1       -0.2426
     24 C         142.6684  138.5126  158.8003 C.ar    1  UNL1        0.0959
@<TRIPOS>BOND
     1     1     2    1
     2     2     3   ar
     3     3     4   ar
     4     4     5   ar
     5     5     6   ar
     6     6     7   ar
     7     7     8   ar
     8     8     9   ar
     9     9    10   ar
    10     7    11    1
    11    11    12    1
    12    12    13    1
    13    13    18    1
    14    18    19    1
    15    19    20   ar
    16    20    21   ar
    17    21    22   ar
    18    22    23   ar
    19    23    24   ar
    20    13    14    1
    21    14    15    1
    22    10     2   ar
    23    24    19   ar
    24     9     4   ar
    25    15     6    1
    26     1    16    1
    27     1    17    1
@<TRIPOS>MOLECULE
*****
 24 27 0 0 0
SMALL
GASTEIGER

@<TRIPOS>ATOM
      1 N         139.5649  142.9372  171.2222 N.pl3   1  UNL1       -0.3375
      2 C         140.1642  142.3150  169.9960 C.ar    1  UNL1        0.1567
      3 N         139.6342  141.1160  169.2668 N.ar    1  UNL1       -0.2245
      4 C         140.5413  140.8425  168.1039 C.ar    1  UNL1        0.0889
      5 C         140.5150  139.7887  167.0367 C.ar    1  UNL1        0.0151
      6 C         141.5794  139.7647  165.9800 C.ar    1  UNL1       -0.0232
      7 C         142.6699  140.7945  165.9905 C.ar    1  UNL1       -0.0241
      8 C         142.6962  141.8483  167.0576 C.ar    1  UNL1        0.0035
      9 C         141.6318  141.8724  168.1143 C.ar    1  UNL1        0.0494
     10 S         141.3988  142.7824  169.2837 S.2     1  UNL1       -0.0520
     11 C         143.8185  140.9502  165.0383 C.3     1  UNL1        0.0434
     12 C         144.1601  140.1143  163.8404 C.3     1  UNL1        0.0771
     13 N         143.4376  138.9165  163.2991 N.3     1  UNL1       -0.2683
     14 C         142.1950  138.2586  163.8217 C.3     1  UNL1        0.0771
     15 C         141.3680  138.6361  165.0148 C.3     1  UNL1        0.0434
     16 H         138.7483  142.5561  171.6187 H       1  UNL1        0.1442
     17 H         139.9881  143.7268  171.6306 H       1  UNL1        0.1442
     18 C         144.0369  138.2942  162.0729 C.3     1  UNL1        0.1007
     19 C         143.5511  138.6987  160.7125 C.ar    1  UNL1        0.0130
     20 C         142.8324  137.7064  159.8471 C.ar    1  UNL1        0.0002
     21 C         142.3466  138.1108  158.4869 C.ar    1  UNL1        0.0204
     22 C         142.5794  139.5076  157.9920 C.ar    1  UNL1        0.0989
     23 N         143.2980  140.4999  158.8574 N.ar    1  UNL1       -0.2426
     24 C         143.7839  140.0955  160.2176 C.ar    1  UNL1        0.0959
@<TRIPOS>BOND
     1     1     2    1
     2     2     3   ar
     3     3     4   ar
     4     4     5   ar
     5     5     6   ar
     6     6     7   ar
     7     7     8   ar
     8     8     9   ar
     9     9    10   ar
    10     7    11    1
    11    11    12    1
    12    12    13    1
    13    13    18    1
    14    18    19    1
    15    19    20   ar
    16    20    21   ar
    17    21    22   ar
    18    22    23   ar
    19    23    24   ar
    20    13    14    1
    21    14    15    1
    22    10     2   ar
    23    24    19   ar
    24     9     4   ar
    25    15     6    1
    26     1    16    1
    27     1    17    1
