@<TRIPOS>MOLECULE
*****
 33 38 0 0 0
SMALL
GASTEIGER

@<TRIPOS>ATOM
      1 C         142.7313  135.3473  156.3927 C.ar    1  UNL1        0.1640
      2 N         142.6419  136.0288  157.7259 N.ar    1  UNL1       -0.2220
      3 C         142.9383  137.4851  157.5229 C.ar    1  UNL1        0.1344
      4 C         142.9952  138.6405  158.4778 C.ar    1  UNL1        0.1049
      5 C         143.3247  140.0144  157.9740 C.ar    1  UNL1        0.0392
      6 C         143.5972  140.2329  156.5152 C.ar    1  UNL1        0.0751
      7 N         143.5402  139.0776  155.5603 N.ar    1  UNL1       -0.3361
      8 C         143.2108  137.7037  156.0641 C.ar    1  UNL1        0.1615
      9 N         143.0829  136.3824  155.3656 N.ar    1  UNL1       -0.2081
     10 H         143.7191  139.2210  154.6029 H       1  UNL1        0.1675
     11 C         144.3764  129.1438  157.2823 C.3     1  UNL1        0.1305
     12 N         144.2275  130.6362  157.2584 N.ar    1  UNL1       -0.3240
     13 C         145.0947  131.6205  157.9859 C.ar    1  UNL1        0.0760
     14 C         144.5885  132.9989  157.6799 C.ar    1  UNL1        0.0202
     15 C         143.4084  132.8665  156.7633 C.ar    1  UNL1        0.0202
     16 C         142.5082  133.8869  156.1322 C.ar    1  UNL1        0.0373
     17 C         141.3850  133.4472  155.2407 C.ar    1  UNL1        0.0031
     18 C         141.1620  131.9869  154.9802 C.ar    1  UNL1        0.0016
     19 C         142.0622  130.9664  155.6113 C.ar    1  UNL1        0.0172
     20 C         143.1854  131.4062  156.5028 C.ar    1  UNL1        0.0601
     21 N         142.7228  138.4219  159.9365 N.ar    1  UNL1       -0.2268
     22 C         141.3755  138.2032  160.5588 C.ar    1  UNL1        0.0991
     23 C         141.5699  138.0299  162.0359 C.ar    1  UNL1        0.0339
     24 C         143.0371  138.1414  162.3267 C.ar    1  UNL1        0.1191
     25 N         143.7497  138.3837  161.0292 N.ar    1  UNL1       -0.1637
     26 C         140.4869  137.7875  163.0452 C.3     1  UNL1        0.1024
     27 N         139.5856  138.9115  163.4628 N.3     1  UNL1       -0.2667
     28 C         139.7251  139.7379  164.7068 C.3     1  UNL1        0.0750
     29 C         138.6124  140.7436  164.7224 C.3     1  UNL1        0.0480
     30 C         137.7851  140.5388  163.4880 C.3     1  UNL1        0.1278
     31 O         136.5697  141.3279  163.1002 O.3     1  UNL1       -0.3830
     32 C         138.3866  139.4066  162.7095 C.3     1  UNL1        0.1020
     33 H         136.3928  142.0017  163.7751 H       1  UNL1        0.2104
@<TRIPOS>BOND
     1    11    12    1
     2    12    13   ar
     3    13    14   ar
     4    14    15   ar
     5    15    16   ar
     6    16     1    1
     7     1     2   ar
     8     2     3   ar
     9     3     4   ar
    10     4    21    1
    11    21    22   ar
    12    22    23   ar
    13    23    26    1
    14    26    27    1
    15    27    28    1
    16    28    29    1
    17    29    30    1
    18    30    31    1
    19    30    32    1
    20    23    24   ar
    21    24    25   ar
    22     4     5   ar
    23     5     6   ar
    24     6     7   ar
    25     7     8   ar
    26     8     9   ar
    27    16    17   ar
    28    17    18   ar
    29    18    19   ar
    30    19    20   ar
    31    20    12   ar
    32    20    15   ar
    33     9     1   ar
    34     8     3    1
    35    25    21   ar
    36    32    27    1
    37    31    33    1
    38     7    10    1
@<TRIPOS>MOLECULE
*****
 33 38 0 0 0
SMALL
GASTEIGER

@<TRIPOS>ATOM
      1 C         143.5561  134.3914  156.5488 C.ar    1  UNL1        0.1640
      2 N         143.0517  135.4082  157.5294 N.ar    1  UNL1       -0.2220
      3 C         143.0703  136.7492  156.8575 C.ar    1  UNL1        0.1344
      4 C         142.6842  138.1172  157.3363 C.ar    1  UNL1        0.1049
      5 C         142.8139  139.2972  156.4193 C.ar    1  UNL1        0.0392
      6 C         143.3297  139.1091  155.0234 C.ar    1  UNL1        0.0751
      7 N         143.7158  137.7410  154.5445 N.ar    1  UNL1       -0.3361
      8 C         143.5861  136.5611  155.4615 C.ar    1  UNL1        0.1615
      9 N         143.8863  135.1039  155.2708 N.ar    1  UNL1       -0.2081
     10 H         144.0543  137.6175  153.6283 H       1  UNL1        0.1675
     11 C         141.6238  128.2814  155.5917 C.3     1  UNL1        0.1305
     12 N         141.8447  129.7646  155.6285 N.ar    1  UNL1       -0.3240
     13 C         141.0368  130.7948  154.8963 C.ar    1  UNL1        0.0760
     14 C         141.6051  132.1449  155.2192 C.ar    1  UNL1        0.0202
     15 C         142.7643  131.9490  156.1510 C.ar    1  UNL1        0.0202
     16 C         143.7041  132.9202  156.8017 C.ar    1  UNL1        0.0373
     17 C         144.7920  132.4204  157.7054 C.ar    1  UNL1        0.0031
     18 C         144.9400  130.9493  157.9583 C.ar    1  UNL1        0.0016
     19 C         144.0002  129.9781  157.3075 C.ar    1  UNL1        0.0172
     20 C         142.9124  130.4780  156.4039 C.ar    1  UNL1        0.0601
     21 N         142.1684  138.3054  158.7322 N.ar    1  UNL1       -0.2268
     22 C         142.9619  138.1428  159.9948 C.ar    1  UNL1        0.0991
     23 C         142.0524  138.4261  161.1534 C.ar    1  UNL1        0.0339
     24 C         140.6969  138.7637  160.6071 C.ar    1  UNL1        0.1191
     25 N         140.7686  138.6891  159.1107 N.ar    1  UNL1       -0.1637
     26 C         142.4319  138.3798  162.6040 C.3     1  UNL1        0.1024
     27 N         143.3273  139.4371  163.1790 N.3     1  UNL1       -0.2667
     28 C         143.1567  140.1090  164.5092 C.3     1  UNL1        0.0750
     29 C         144.2744  141.0951  164.6770 C.3     1  UNL1        0.0480
     30 C         145.1358  141.0327  163.4506 C.3     1  UNL1        0.1278
     31 O         146.3665  141.8513  163.1950 O.3     1  UNL1       -0.3830
     32 C         144.5505  140.0079  162.5247 C.3     1  UNL1        0.1020
     33 H         146.5278  142.4374  163.9509 H       1  UNL1        0.2104
@<TRIPOS>BOND
     1    11    12    1
     2    12    13   ar
     3    13    14   ar
     4    14    15   ar
     5    15    16   ar
     6    16     1    1
     7     1     2   ar
     8     2     3   ar
     9     3     4   ar
    10     4    21    1
    11    21    22   ar
    12    22    23   ar
    13    23    26    1
    14    26    27    1
    15    27    28    1
    16    28    29    1
    17    29    30    1
    18    30    31    1
    19    30    32    1
    20    23    24   ar
    21    24    25   ar
    22     4     5   ar
    23     5     6   ar
    24     6     7   ar
    25     7     8   ar
    26     8     9   ar
    27    16    17   ar
    28    17    18   ar
    29    18    19   ar
    30    19    20   ar
    31    20    12   ar
    32    20    15   ar
    33     9     1   ar
    34     8     3    1
    35    25    21   ar
    36    32    27    1
    37    31    33    1
    38     7    10    1
@<TRIPOS>MOLECULE
*****
 33 38 0 0 0
SMALL
GASTEIGER

@<TRIPOS>ATOM
      1 C         143.4555  135.0201  156.7380 C.ar    1  UNL1        0.1640
      2 N         142.7246  135.9043  157.7045 N.ar    1  UNL1       -0.2220
      3 C         142.7923  137.3110  157.1881 C.ar    1  UNL1        0.1344
      4 C         142.2502  138.6035  157.7225 C.ar    1  UNL1        0.1049
      5 C         142.4808  139.8812  156.9712 C.ar    1  UNL1        0.0392
      6 C         143.2535  139.8664  155.6857 C.ar    1  UNL1        0.0751
      7 N         143.7956  138.5739  155.1513 N.ar    1  UNL1       -0.3361
      8 C         143.5651  137.2962  155.9025 C.ar    1  UNL1        0.1615
      9 N         143.9749  135.8804  155.6243 N.ar    1  UNL1       -0.2081
     10 H         144.3028  138.5642  154.3076 H       1  UNL1        0.1675
     11 C         141.5948  128.9748  155.3331 C.3     1  UNL1        0.1305
     12 N         141.7925  130.4538  155.4867 N.ar    1  UNL1       -0.3240
     13 C         140.9455  131.5256  154.8669 C.ar    1  UNL1        0.0760
     14 C         141.5014  132.8548  155.2842 C.ar    1  UNL1        0.0202
     15 C         142.6919  132.6045  156.1618 C.ar    1  UNL1        0.0202
     16 C         143.6354  133.5361  156.8632 C.ar    1  UNL1        0.0373
     17 C         144.7587  132.9839  157.6897 C.ar    1  UNL1        0.0031
     18 C         144.9385  131.5000  157.8148 C.ar    1  UNL1        0.0016
     19 C         143.9951  130.5684  157.1134 C.ar    1  UNL1        0.0172
     20 C         142.8718  131.1206  156.2870 C.ar    1  UNL1        0.0601
     21 N         141.4775  138.6183  159.0080 N.ar    1  UNL1       -0.2268
     22 C         140.0304  138.9816  159.1628 C.ar    1  UNL1        0.0991
     23 C         139.6748  138.8602  160.6150 C.ar    1  UNL1        0.0339
     24 C         140.9021  138.4219  161.3577 C.ar    1  UNL1        0.1191
     25 N         142.0162  138.2724  160.3645 N.ar    1  UNL1       -0.1637
     26 C         138.3283  139.1298  161.2185 C.3     1  UNL1        0.1024
     27 N         138.0772  140.4164  161.9478 N.3     1  UNL1       -0.2667
     28 C         137.7572  140.5549  163.4066 C.3     1  UNL1        0.0750
     29 C         137.5843  142.0144  163.7066 C.3     1  UNL1        0.0480
     30 C         137.7976  142.7779  162.4332 C.3     1  UNL1        0.1278
     31 O         137.7198  144.2675  162.2747 O.3     1  UNL1       -0.3830
     32 C         138.1022  141.7902  161.3461 C.3     1  UNL1        0.1020
     33 H         137.5079  144.6730  163.1300 H       1  UNL1        0.2104
@<TRIPOS>BOND
     1    11    12    1
     2    12    13   ar
     3    13    14   ar
     4    14    15   ar
     5    15    16   ar
     6    16     1    1
     7     1     2   ar
     8     2     3   ar
     9     3     4   ar
    10     4    21    1
    11    21    22   ar
    12    22    23   ar
    13    23    26    1
    14    26    27    1
    15    27    28    1
    16    28    29    1
    17    29    30    1
    18    30    31    1
    19    30    32    1
    20    23    24   ar
    21    24    25   ar
    22     4     5   ar
    23     5     6   ar
    24     6     7   ar
    25     7     8   ar
    26     8     9   ar
    27    16    17   ar
    28    17    18   ar
    29    18    19   ar
    30    19    20   ar
    31    20    12   ar
    32    20    15   ar
    33     9     1   ar
    34     8     3    1
    35    25    21   ar
    36    32    27    1
    37    31    33    1
    38     7    10    1
@<TRIPOS>MOLECULE
*****
 33 38 0 0 0
SMALL
GASTEIGER

@<TRIPOS>ATOM
      1 C         139.7462  145.7417  155.8454 C.ar    1  UNL1        0.1640
      2 N         139.9583  145.6419  157.3269 N.ar    1  UNL1       -0.2220
      3 C         139.7191  144.2183  157.7346 C.ar    1  UNL1        0.1344
      4 C         139.7825  143.5316  159.0666 C.ar    1  UNL1        0.1049
      5 C         139.4859  142.0647  159.1690 C.ar    1  UNL1        0.0392
      6 C         139.1260  141.2847  157.9394 C.ar    1  UNL1        0.0751
      7 N         139.0626  141.9715  156.6074 N.ar    1  UNL1       -0.3361
      8 C         139.3591  143.4383  156.5049 C.ar    1  UNL1        0.1615
      9 N         139.3759  144.3798  155.3374 N.ar    1  UNL1       -0.2081
     10 H         138.8264  141.4595  155.8003 H       1  UNL1        0.1675
     11 C         138.6325  152.0591  154.9337 C.3     1  UNL1        0.1305
     12 N         138.7399  150.6379  155.4012 N.ar    1  UNL1       -0.3240
     13 C         138.1832  150.0860  156.6801 C.ar    1  UNL1        0.0760
     14 C         138.5221  148.6260  156.7413 C.ar    1  UNL1        0.0202
     15 C         139.2883  148.2757  155.5001 C.ar    1  UNL1        0.0202
     16 C         139.8808  146.9851  155.0172 C.ar    1  UNL1        0.0373
     17 C         140.6079  146.9379  153.7060 C.ar    1  UNL1        0.0031
     18 C         140.7425  148.1812  152.8779 C.ar    1  UNL1        0.0016
     19 C         140.1500  149.4719  153.3609 C.ar    1  UNL1        0.0172
     20 C         139.4229  149.5191  154.6720 C.ar    1  UNL1        0.0601
     21 N         140.1424  144.3116  160.2962 N.ar    1  UNL1       -0.2268
     22 C         141.2571  143.9924  161.2480 C.ar    1  UNL1        0.0991
     23 C         141.2544  145.0313  162.3299 C.ar    1  UNL1        0.0339
     24 C         140.1382  145.9925  162.0469 C.ar    1  UNL1        0.1191
     25 N         139.4509  145.5476  160.7900 N.ar    1  UNL1       -0.1637
     26 C         142.2018  145.0974  163.4911 C.3     1  UNL1        0.1024
     27 N         143.1507  143.9649  163.7502 N.3     1  UNL1       -0.2667
     28 C         142.9926  142.9046  164.7993 C.3     1  UNL1        0.0750
     29 C         144.1685  141.9784  164.7031 C.3     1  UNL1        0.0480
     30 C         145.0534  142.4663  163.5945 C.3     1  UNL1        0.1278
     31 O         146.3413  141.8368  163.1526 O.3     1  UNL1       -0.3830
     32 C         144.4244  143.6940  163.0056 C.3     1  UNL1        0.1020
     33 H         146.5224  141.0547  163.6969 H       1  UNL1        0.2104
@<TRIPOS>BOND
     1    11    12    1
     2    12    13   ar
     3    13    14   ar
     4    14    15   ar
     5    15    16   ar
     6    16     1    1
     7     1     2   ar
     8     2     3   ar
     9     3     4   ar
    10     4    21    1
    11    21    22   ar
    12    22    23   ar
    13    23    26    1
    14    26    27    1
    15    27    28    1
    16    28    29    1
    17    29    30    1
    18    30    31    1
    19    30    32    1
    20    23    24   ar
    21    24    25   ar
    22     4     5   ar
    23     5     6   ar
    24     6     7   ar
    25     7     8   ar
    26     8     9   ar
    27    16    17   ar
    28    17    18   ar
    29    18    19   ar
    30    19    20   ar
    31    20    12   ar
    32    20    15   ar
    33     9     1   ar
    34     8     3    1
    35    25    21   ar
    36    32    27    1
    37    31    33    1
    38     7    10    1
@<TRIPOS>MOLECULE
*****
 33 38 0 0 0
SMALL
GASTEIGER

@<TRIPOS>ATOM
      1 C         139.4543  142.4359  164.2674 C.ar    1  UNL1        0.1640
      2 N         140.5397  142.4290  163.2321 N.ar    1  UNL1       -0.2220
      3 C         140.3911  143.6657  162.3964 C.ar    1  UNL1        0.1344
      4 C         141.1756  144.1891  161.2300 C.ar    1  UNL1        0.1049
      5 C         140.7828  145.4839  160.5824 C.ar    1  UNL1        0.0392
      6 C         139.6055  146.2551  161.1011 C.ar    1  UNL1        0.0751
      7 N         138.8210  145.7317  162.2675 N.ar    1  UNL1       -0.3361
      8 C         139.2137  144.4370  162.9151 C.ar    1  UNL1        0.1615
      9 N         138.6348  143.6769  164.0715 N.ar    1  UNL1       -0.2081
     10 H         138.0483  146.2379  162.6079 H       1  UNL1        0.1675
     11 C         140.6255  139.9989  170.1555 C.3     1  UNL1        0.1305
     12 N         140.5468  140.7778  168.8760 N.ar    1  UNL1       -0.3240
     13 C         141.2888  142.0445  168.5678 C.ar    1  UNL1        0.0760
     14 C         140.9128  142.4763  167.1814 C.ar    1  UNL1        0.0202
     15 C         139.9385  141.4764  166.6328 C.ar    1  UNL1        0.0202
     16 C         139.2280  141.3862  165.3148 C.ar    1  UNL1        0.0373
     17 C         138.2914  140.2463  165.0441 C.ar    1  UNL1        0.0031
     18 C         138.0652  139.1966  166.0914 C.ar    1  UNL1        0.0016
     19 C         138.7756  139.2868  167.4094 C.ar    1  UNL1        0.0172
     20 C         139.7123  140.4267  167.6801 C.ar    1  UNL1        0.0601
     21 N         142.3529  143.4179  160.7113 N.ar    1  UNL1       -0.2268
     22 C         142.3354  142.4432  159.5712 C.ar    1  UNL1        0.0991
     23 C         143.7261  141.9089  159.3969 C.ar    1  UNL1        0.0339
     24 C         144.6031  142.5533  160.4292 C.ar    1  UNL1        0.1191
     25 N         143.7544  143.4860  161.2415 N.ar    1  UNL1       -0.1637
     26 C         144.1631  140.9061  158.3704 C.3     1  UNL1        0.1024
     27 N         143.5706  139.5281  158.3684 N.3     1  UNL1       -0.2667
     28 C         143.2696  138.6960  159.5796 C.3     1  UNL1        0.0750
     29 C         142.6881  137.3939  159.1145 C.3     1  UNL1        0.0480
     30 C         142.6297  137.4212  157.6159 C.3     1  UNL1        0.1278
     31 O         142.1159  136.3224  156.7334 O.3     1  UNL1       -0.3830
     32 C         143.1751  138.7402  157.1547 C.3     1  UNL1        0.1020
     33 H         141.8217  135.5782  157.2817 H       1  UNL1        0.2104
@<TRIPOS>BOND
     1    11    12    1
     2    12    13   ar
     3    13    14   ar
     4    14    15   ar
     5    15    16   ar
     6    16     1    1
     7     1     2   ar
     8     2     3   ar
     9     3     4   ar
    10     4    21    1
    11    21    22   ar
    12    22    23   ar
    13    23    26    1
    14    26    27    1
    15    27    28    1
    16    28    29    1
    17    29    30    1
    18    30    31    1
    19    30    32    1
    20    23    24   ar
    21    24    25   ar
    22     4     5   ar
    23     5     6   ar
    24     6     7   ar
    25     7     8   ar
    26     8     9   ar
    27    16    17   ar
    28    17    18   ar
    29    18    19   ar
    30    19    20   ar
    31    20    12   ar
    32    20    15   ar
    33     9     1   ar
    34     8     3    1
    35    25    21   ar
    36    32    27    1
    37    31    33    1
    38     7    10    1
@<TRIPOS>MOLECULE
*****
 33 38 0 0 0
SMALL
GASTEIGER

@<TRIPOS>ATOM
      1 C         139.4433  142.3847  164.3456 C.ar    1  UNL1        0.1640
      2 N         140.5259  142.3609  163.3076 N.ar    1  UNL1       -0.2220
      3 C         140.3851  143.5923  162.4627 C.ar    1  UNL1        0.1344
      4 C         141.1708  144.1003  161.2903 C.ar    1  UNL1        0.1049
      5 C         140.7868  145.3932  160.6337 C.ar    1  UNL1        0.0392
      6 C         139.6173  146.1780  161.1495 C.ar    1  UNL1        0.0751
      7 N         138.8316  145.6700  162.3220 N.ar    1  UNL1       -0.3361
      8 C         139.2154  144.3771  162.9785 C.ar    1  UNL1        0.1615
      9 N         138.6334  143.6308  164.1422 N.ar    1  UNL1       -0.2081
     10 H         138.0639  146.1851  162.6605 H       1  UNL1        0.1675
     11 C         140.5002  140.0601  170.3005 C.3     1  UNL1        0.1305
     12 N         140.4404  140.8186  169.0078 N.ar    1  UNL1       -0.3240
     13 C         141.1615  142.0979  168.7020 C.ar    1  UNL1        0.0760
     14 C         140.8158  142.5009  167.2991 C.ar    1  UNL1        0.0202
     15 C         139.8811  141.4706  166.7379 C.ar    1  UNL1        0.0202
     16 C         139.2113  141.3449  165.4016 C.ar    1  UNL1        0.0373
     17 C         138.3095  140.1795  165.1214 C.ar    1  UNL1        0.0031
     18 C         138.0775  139.1398  166.1774 C.ar    1  UNL1        0.0016
     19 C         138.7473  139.2655  167.5136 C.ar    1  UNL1        0.0172
     20 C         139.6491  140.4309  167.7939 C.ar    1  UNL1        0.0601
     21 N         142.3404  143.3155  160.7745 N.ar    1  UNL1       -0.2268
     22 C         142.3046  142.3058  159.6658 C.ar    1  UNL1        0.0991
     23 C         143.6932  141.7689  159.4829 C.ar    1  UNL1        0.0339
     24 C         144.5872  142.4468  160.4786 C.ar    1  UNL1        0.1191
     25 N         143.7511  143.4026  161.2768 N.ar    1  UNL1       -0.1637
     26 C         144.1140  140.7355  158.4803 C.3     1  UNL1        0.1024
     27 N         144.9625  141.1298  157.3079 N.3     1  UNL1       -0.2667
     28 C         145.2701  140.2744  156.1147 C.3     1  UNL1        0.0750
     29 C         146.1500  141.0648  155.1922 C.3     1  UNL1        0.0480
     30 C         146.3863  142.4087  155.8152 C.3     1  UNL1        0.1278
     31 O         147.2117  143.5176  155.2329 O.3     1  UNL1       -0.3830
     32 C         145.6524  142.4489  157.1228 C.3     1  UNL1        0.1020
     33 H         147.5771  143.2351  154.3799 H       1  UNL1        0.2104
@<TRIPOS>BOND
     1    11    12    1
     2    12    13   ar
     3    13    14   ar
     4    14    15   ar
     5    15    16   ar
     6    16     1    1
     7     1     2   ar
     8     2     3   ar
     9     3     4   ar
    10     4    21    1
    11    21    22   ar
    12    22    23   ar
    13    23    26    1
    14    26    27    1
    15    27    28    1
    16    28    29    1
    17    29    30    1
    18    30    31    1
    19    30    32    1
    20    23    24   ar
    21    24    25   ar
    22     4     5   ar
    23     5     6   ar
    24     6     7   ar
    25     7     8   ar
    26     8     9   ar
    27    16    17   ar
    28    17    18   ar
    29    18    19   ar
    30    19    20   ar
    31    20    12   ar
    32    20    15   ar
    33     9     1   ar
    34     8     3    1
    35    25    21   ar
    36    32    27    1
    37    31    33    1
    38     7    10    1
@<TRIPOS>MOLECULE
*****
 33 38 0 0 0
SMALL
GASTEIGER

@<TRIPOS>ATOM
      1 C         143.1966  136.1655  156.2062 C.ar    1  UNL1        0.1640
      2 N         142.4832  136.6337  157.4398 N.ar    1  UNL1       -0.2220
      3 C         142.8815  138.0575  157.6934 C.ar    1  UNL1        0.1344
      4 C         142.4945  139.0322  158.7658 C.ar    1  UNL1        0.1049
      5 C         143.0670  140.4187  158.7613 C.ar    1  UNL1        0.0392
      6 C         144.0266  140.8304  157.6843 C.ar    1  UNL1        0.0751
      7 N         144.4136  139.8556  156.6120 N.ar    1  UNL1       -0.3361
      8 C         143.8411  138.4692  156.6165 C.ar    1  UNL1        0.1615
      9 N         144.0358  137.2999  155.6974 N.ar    1  UNL1       -0.2081
     10 H         145.0434  140.1258  155.9051 H       1  UNL1        0.1675
     11 C         144.3401  129.7904  156.3820 C.3     1  UNL1        0.1305
     12 N         144.2172  131.2684  156.6059 N.ar    1  UNL1       -0.3240
     13 C         144.7312  132.0260  157.7942 C.ar    1  UNL1        0.0760
     14 C         144.3904  133.4742  157.6035 C.ar    1  UNL1        0.0202
     15 C         143.6657  133.6117  156.2973 C.ar    1  UNL1        0.0202
     16 C         143.0895  134.8022  155.5896 C.ar    1  UNL1        0.0373
     17 C         142.4063  134.6295  154.2655 C.ar    1  UNL1        0.0031
     18 C         142.2993  133.2663  153.6490 C.ar    1  UNL1        0.0016
     19 C         142.8755  132.0758  154.3566 C.ar    1  UNL1        0.0172
     20 C         143.5587  132.2485  155.6808 C.ar    1  UNL1        0.0601
     21 N         141.5349  138.6206  159.8427 N.ar    1  UNL1       -0.2268
     22 C         141.9020  138.1684  161.2251 C.ar    1  UNL1        0.0991
     23 C         140.6338  137.8572  161.9630 C.ar    1  UNL1        0.0339
     24 C         139.4829  138.1170  161.0368 C.ar    1  UNL1        0.1191
     25 N         140.0398  138.5888  159.7264 N.ar    1  UNL1       -0.1637
     26 C         140.5340  137.3715  163.3787 C.3     1  UNL1        0.1024
     27 N         139.6416  138.0806  164.3538 N.3     1  UNL1       -0.2667
     28 C         139.4540  139.5651  164.4588 C.3     1  UNL1        0.0750
     29 C         138.4765  139.8316  165.5650 C.3     1  UNL1        0.0480
     30 C         138.0600  138.5118  166.1436 C.3     1  UNL1        0.1278
     31 O         137.0932  138.3098  167.2726 O.3     1  UNL1       -0.3830
     32 C         138.7801  137.4296  165.3951 C.3     1  UNL1        0.1020
     33 H         136.7705  139.1714  167.5799 H       1  UNL1        0.2104
@<TRIPOS>BOND
     1    11    12    1
     2    12    13   ar
     3    13    14   ar
     4    14    15   ar
     5    15    16   ar
     6    16     1    1
     7     1     2   ar
     8     2     3   ar
     9     3     4   ar
    10     4    21    1
    11    21    22   ar
    12    22    23   ar
    13    23    26    1
    14    26    27    1
    15    27    28    1
    16    28    29    1
    17    29    30    1
    18    30    31    1
    19    30    32    1
    20    23    24   ar
    21    24    25   ar
    22     4     5   ar
    23     5     6   ar
    24     6     7   ar
    25     7     8   ar
    26     8     9   ar
    27    16    17   ar
    28    17    18   ar
    29    18    19   ar
    30    19    20   ar
    31    20    12   ar
    32    20    15   ar
    33     9     1   ar
    34     8     3    1
    35    25    21   ar
    36    32    27    1
    37    31    33    1
    38     7    10    1
@<TRIPOS>MOLECULE
*****
 33 38 0 0 0
SMALL
GASTEIGER

@<TRIPOS>ATOM
      1 C         142.8575  135.2767  156.1905 C.ar    1  UNL1        0.1640
      2 N         142.2505  136.1323  157.2626 N.ar    1  UNL1       -0.2220
      3 C         142.8164  137.5149  157.1282 C.ar    1  UNL1        0.1344
      4 C         142.5841  138.7747  157.9085 C.ar    1  UNL1        0.1049
      5 C         143.3086  140.0336  157.5335 C.ar    1  UNL1        0.0392
      6 C         144.2653  140.0325  156.3783 C.ar    1  UNL1        0.0751
      7 N         144.4976  138.7727  155.5980 N.ar    1  UNL1       -0.3361
      8 C         143.7732  137.5139  155.9729 C.ar    1  UNL1        0.1615
      9 N         143.7986  136.1306  155.3934 N.ar    1  UNL1       -0.2081
     10 H         145.1256  138.7720  154.8397 H       1  UNL1        0.1675
     11 C         144.1888  129.0265  157.2598 C.3     1  UNL1        0.1305
     12 N         144.1102  130.5232  157.1991 N.ar    1  UNL1       -0.3240
     13 C         145.0035  131.4833  157.9274 C.ar    1  UNL1        0.0760
     14 C         144.5700  132.8761  157.5778 C.ar    1  UNL1        0.0202
     15 C         143.4087  132.7767  156.6334 C.ar    1  UNL1        0.0202
     16 C         142.5734  133.8226  155.9564 C.ar    1  UNL1        0.0373
     17 C         141.4539  133.4143  155.0453 C.ar    1  UNL1        0.0031
     18 C         141.1698  131.9602  154.8113 C.ar    1  UNL1        0.0016
     19 C         142.0052  130.9144  155.4883 C.ar    1  UNL1        0.0172
     20 C         143.1246  131.3226  156.3994 C.ar    1  UNL1        0.0601
     21 N         141.6274  138.7758  159.0638 N.ar    1  UNL1       -0.2268
     22 C         140.2170  139.2858  159.0401 C.ar    1  UNL1        0.0991
     23 C         139.6311  139.0922  160.4072 C.ar    1  UNL1        0.0339
     24 C         140.6793  138.4625  161.2759 C.ar    1  UNL1        0.1191
     25 N         141.9131  138.2670  160.4456 N.ar    1  UNL1       -0.1637
     26 C         138.2408  139.4632  160.8313 C.3     1  UNL1        0.1024
     27 N         138.0150  140.6794  161.6798 N.3     1  UNL1       -0.2667
     28 C         137.7135  140.6856  163.1492 C.3     1  UNL1        0.0750
     29 C         137.5631  142.1129  163.5854 C.3     1  UNL1        0.0480
     30 C         137.7717  142.9887  162.3857 C.3     1  UNL1        0.1278
     31 O         137.7116  144.4875  162.3670 O.3     1  UNL1       -0.3830
     32 C         138.0510  142.1028  161.2079 C.3     1  UNL1        0.1020
     33 H         137.5148  144.8143  163.2588 H       1  UNL1        0.2104
@<TRIPOS>BOND
     1    11    12    1
     2    12    13   ar
     3    13    14   ar
     4    14    15   ar
     5    15    16   ar
     6    16     1    1
     7     1     2   ar
     8     2     3   ar
     9     3     4   ar
    10     4    21    1
    11    21    22   ar
    12    22    23   ar
    13    23    26    1
    14    26    27    1
    15    27    28    1
    16    28    29    1
    17    29    30    1
    18    30    31    1
    19    30    32    1
    20    23    24   ar
    21    24    25   ar
    22     4     5   ar
    23     5     6   ar
    24     6     7   ar
    25     7     8   ar
    26     8     9   ar
    27    16    17   ar
    28    17    18   ar
    29    18    19   ar
    30    19    20   ar
    31    20    12   ar
    32    20    15   ar
    33     9     1   ar
    34     8     3    1
    35    25    21   ar
    36    32    27    1
    37    31    33    1
    38     7    10    1
@<TRIPOS>MOLECULE
*****
 33 38 0 0 0
SMALL
GASTEIGER

@<TRIPOS>ATOM
      1 C         143.4210  135.6781  156.7715 C.ar    1  UNL1        0.1640
      2 N         142.6115  136.2616  157.8915 N.ar    1  UNL1       -0.2220
      3 C         142.5846  137.7511  157.7168 C.ar    1  UNL1        0.1344
      4 C         141.9406  138.8441  158.5172 C.ar    1  UNL1        0.1049
      5 C         142.0895  140.2742  158.0897 C.ar    1  UNL1        0.0392
      6 C         142.8825  140.6113  156.8618 C.ar    1  UNL1        0.0751
      7 N         143.5265  139.5183  156.0614 N.ar    1  UNL1       -0.3361
      8 C         143.3776  138.0883  156.4889 C.ar    1  UNL1        0.1615
      9 N         143.8944  136.8070  155.9047 N.ar    1  UNL1       -0.2081
     10 H         144.0469  139.7395  155.2556 H       1  UNL1        0.1675
     11 C         143.0296  130.3314  153.1327 C.3     1  UNL1        0.1305
     12 N         142.9708  131.6978  153.7487 N.ar    1  UNL1       -0.3240
     13 C         142.3342  132.9124  153.1408 C.ar    1  UNL1        0.0760
     14 C         142.5083  134.0548  154.0971 C.ar    1  UNL1        0.0202
     15 C         143.2525  133.5462  155.2962 C.ar    1  UNL1        0.0202
     16 C         143.7068  134.2213  156.5562 C.ar    1  UNL1        0.0373
     17 C         144.4470  133.4399  157.6009 C.ar    1  UNL1        0.0031
     18 C         144.7328  131.9832  157.3855 C.ar    1  UNL1        0.0016
     19 C         144.2785  131.3081  156.1255 C.ar    1  UNL1        0.0172
     20 C         143.5384  132.0895  155.0808 C.ar    1  UNL1        0.0601
     21 N         141.1477  138.5071  159.7450 N.ar    1  UNL1       -0.2268
     22 C         141.7117  138.1356  161.0844 C.ar    1  UNL1        0.0991
     23 C         140.5641  137.8812  162.0162 C.ar    1  UNL1        0.0339
     24 C         139.2909  138.0956  161.2528 C.ar    1  UNL1        0.1191
     25 N         139.6515  138.4823  159.8491 N.ar    1  UNL1       -0.1637
     26 C         140.6711  137.4826  163.4583 C.3     1  UNL1        0.1024
     27 N         139.7787  138.1210  164.4811 N.3     1  UNL1       -0.2667
     28 C         139.7406  139.5792  164.8307 C.3     1  UNL1        0.0750
     29 C         138.7061  139.7728  165.8995 C.3     1  UNL1        0.0480
     30 C         138.1048  138.4342  166.2105 C.3     1  UNL1        0.1278
     31 O         137.0295  138.1639  167.2208 O.3     1  UNL1       -0.3830
     32 C         138.7677  137.4133  165.3339 C.3     1  UNL1        0.1020
     33 H         136.7745  138.9947  167.6517 H       1  UNL1        0.2104
@<TRIPOS>BOND
     1    11    12    1
     2    12    13   ar
     3    13    14   ar
     4    14    15   ar
     5    15    16   ar
     6    16     1    1
     7     1     2   ar
     8     2     3   ar
     9     3     4   ar
    10     4    21    1
    11    21    22   ar
    12    22    23   ar
    13    23    26    1
    14    26    27    1
    15    27    28    1
    16    28    29    1
    17    29    30    1
    18    30    31    1
    19    30    32    1
    20    23    24   ar
    21    24    25   ar
    22     4     5   ar
    23     5     6   ar
    24     6     7   ar
    25     7     8   ar
    26     8     9   ar
    27    16    17   ar
    28    17    18   ar
    29    18    19   ar
    30    19    20   ar
    31    20    12   ar
    32    20    15   ar
    33     9     1   ar
    34     8     3    1
    35    25    21   ar
    36    32    27    1
    37    31    33    1
    38     7    10    1
