@<TRIPOS>MOLECULE
*****
 38 42 0 0 0
SMALL
GASTEIGER

@<TRIPOS>ATOM
      1 C         140.7475  143.1149  162.5767 C.ar    1  UNL1        0.0536
      2 C         140.5681  144.5643  162.2346 C.ar    1  UNL1        0.0048
      3 C         140.7660  145.0318  160.8231 C.ar    1  UNL1        0.0047
      4 C         141.1433  144.0500  159.7537 C.ar    1  UNL1        0.0534
      5 C         141.3227  142.6006  160.0957 C.ar    1  UNL1        0.0047
      6 C         141.1248  142.1331  161.5072 C.ar    1  UNL1        0.0048
      7 C         139.4643  140.2494  166.8751 C.ar    1  UNL1        0.0143
      8 C         139.5977  140.4811  168.3511 C.ar    1  UNL1        0.0091
      9 C         140.2071  141.7543  168.8584 C.ar    1  UNL1        0.0698
     10 C         140.6832  142.7960  167.8897 C.ar    1  UNL1        0.0326
     11 C         140.5498  142.5643  166.4137 C.ar    1  UNL1        0.1192
     12 N         140.9264  143.4025  165.2281 N.ar    1  UNL1       -0.2082
     13 C         140.5497  142.6473  163.9881 C.ar    1  UNL1        0.2296
     14 O         139.9403  141.3423  164.4073 O.2     1  UNL1       -0.4349
     15 C         139.9404  141.2910  165.9064 C.ar    1  UNL1        0.1607
     16 C         137.5909  138.4525  166.9828 C.3     1  UNL1        0.0048
     17 C         138.8549  138.9761  166.3679 C.3     1  UNL1        0.0254
     18 C         139.5095  138.2264  165.2455 C.3     1  UNL1        0.0048
     19 C         140.3404  141.9860  170.3344 C.1     1  UNL1        0.1005
     20 N         140.4737  142.2177  171.8104 N.1     1  UNL1       -0.1908
     21 C         141.3412  144.5176  158.3422 C.2     1  UNL1        0.2458
     22 O         142.5405  145.3458  157.9878 O.2     1  UNL1       -0.2701
     23 N         140.3398  144.1570  157.2853 N.am    1  UNL1       -0.3009
     24 H         139.5526  143.6134  157.5180 H       1  UNL1        0.1497
     25 C         140.5377  144.6246  155.8739 C.3     1  UNL1        0.0896
     26 C         140.2002  146.0368  155.4973 C.3     1  UNL1        0.0196
     27 C         139.2863  146.8471  156.3680 C.3     1  UNL1        0.0020
     28 C         138.9488  148.2593  155.9915 C.3     1  UNL1        0.0044
     29 C         139.5252  148.8612  154.7443 C.3     1  UNL1        0.0223
     30 C         140.4392  148.0508  153.8735 C.3     1  UNL1        0.0044
     31 C         140.7767  146.6386  154.2501 C.3     1  UNL1        0.0020
     32 C         139.1877  150.2734  154.3677 C.ar    1  UNL1       -0.0225
     33 C         139.3403  150.7275  152.9463 C.ar    1  UNL1       -0.0034
     34 C         139.0028  152.1397  152.5698 C.ar    1  UNL1        0.0111
     35 C         138.5127  153.0978  153.6148 C.ar    1  UNL1        0.0577
     36 CL        138.1752  154.5100  153.2383 Cl      1  UNL1       -0.0822
     37 C         138.3601  152.6436  155.0362 C.ar    1  UNL1        0.0111
     38 C         138.6976  151.2314  155.4127 C.ar    1  UNL1       -0.0034
@<TRIPOS>BOND
     1    16    17    1
     2    17    18    1
     3    17     7    1
     4     7     8   ar
     5     8     9   ar
     6     9    19    1
     7    19    20    3
     8     9    10   ar
     9    10    11   ar
    10    11    12   ar
    11    12    13   ar
    12    13     1    1
    13     1     2   ar
    14     2     3   ar
    15     3     4   ar
    16     4    21    1
    17    21    22    2
    18    21    23   am
    19    23    25    1
    20    26    25    1
    21    26    27    1
    22    27    28    1
    23    28    29    1
    24    29    32    1
    25    32    33   ar
    26    33    34   ar
    27    34    35   ar
    28    35    36    1
    29    35    37   ar
    30    37    38   ar
    31    29    30    1
    32    30    31    1
    33     4     5   ar
    34     5     6   ar
    35    13    14   ar
    36    14    15   ar
    37    15     7   ar
    38    15    11   ar
    39     6     1   ar
    40    31    26    1
    41    38    32   ar
    42    23    24    1
@<TRIPOS>MOLECULE
*****
 38 42 0 0 0
SMALL
GASTEIGER

@<TRIPOS>ATOM
      1 C         141.3586  142.3860  162.7279 C.ar    1  UNL1        0.0536
      2 C         141.8550  141.3296  161.7858 C.ar    1  UNL1        0.0048
      3 C         142.2094  141.6907  160.3736 C.ar    1  UNL1        0.0047
      4 C         142.0674  143.1081  159.9037 C.ar    1  UNL1        0.0534
      5 C         141.5710  144.1644  160.8458 C.ar    1  UNL1        0.0047
      6 C         141.2166  143.8033  162.2580 C.ar    1  UNL1        0.0048
      7 C         139.3696  139.9776  167.0381 C.ar    1  UNL1        0.0143
      8 C         139.4538  140.2545  168.5099 C.ar    1  UNL1        0.0091
      9 C         140.2360  141.4335  169.0077 C.ar    1  UNL1        0.0698
     10 C         140.9342  142.3358  168.0337 C.ar    1  UNL1        0.0326
     11 C         140.8499  142.0589  166.5619 C.ar    1  UNL1        0.1192
     12 N         141.4288  142.7666  165.3728 N.ar    1  UNL1       -0.2082
     13 C         141.0042  142.0249  164.1400 C.ar    1  UNL1        0.2296
     14 O         140.1630  140.8588  164.5673 O.2     1  UNL1       -0.4349
     15 C         140.0676  140.8798  166.0641 C.ar    1  UNL1        0.1607
     16 C         139.0319  138.0702  165.3068 C.3     1  UNL1        0.0048
     17 C         138.5872  138.7986  166.5404 C.3     1  UNL1        0.0254
     18 C         137.3602  138.3478  167.2762 C.3     1  UNL1        0.0048
     19 C         140.3202  141.7104  170.4796 C.1     1  UNL1        0.1005
     20 N         140.4045  141.9873  171.9514 N.1     1  UNL1       -0.1908
     21 C         142.4218  143.4691  158.4916 C.2     1  UNL1        0.2458
     22 O         142.6456  144.9045  158.1181 O.2     1  UNL1       -0.2701
     23 N         142.5525  142.3947  157.4530 N.am    1  UNL1       -0.3009
     24 H         142.4056  141.4526  157.6981 H       1  UNL1        0.1497
     25 C         142.9069  142.7557  156.0409 C.3     1  UNL1        0.0896
     26 C         144.3393  142.7278  155.5965 C.3     1  UNL1        0.0196
     27 C         144.7150  143.2538  154.2430 C.3     1  UNL1        0.0020
     28 C         146.1474  143.2258  153.7987 C.3     1  UNL1        0.0044
     29 C         147.2041  142.6720  154.7079 C.3     1  UNL1        0.0223
     30 C         146.8283  142.1460  156.0616 C.3     1  UNL1        0.0044
     31 C         145.3959  142.1739  156.5059 C.3     1  UNL1        0.0020
     32 C         148.6365  142.6441  154.2636 C.ar    1  UNL1       -0.0225
     33 C         149.0908  143.5285  153.1405 C.ar    1  UNL1       -0.0034
     34 C         150.5232  143.5006  152.6962 C.ar    1  UNL1        0.0111
     35 C         151.5013  142.5881  153.3750 C.ar    1  UNL1        0.0577
     36 CL        152.9337  142.5602  152.9307 Cl      1  UNL1       -0.0822
     37 C         151.0470  141.7037  154.4981 C.ar    1  UNL1        0.0111
     38 C         149.6146  141.7316  154.9424 C.ar    1  UNL1       -0.0034
@<TRIPOS>BOND
     1    16    17    1
     2    17    18    1
     3    17     7    1
     4     7     8   ar
     5     8     9   ar
     6     9    19    1
     7    19    20    3
     8     9    10   ar
     9    10    11   ar
    10    11    12   ar
    11    12    13   ar
    12    13     1    1
    13     1     2   ar
    14     2     3   ar
    15     3     4   ar
    16     4    21    1
    17    21    22    2
    18    21    23   am
    19    23    25    1
    20    26    25    1
    21    26    27    1
    22    27    28    1
    23    28    29    1
    24    29    32    1
    25    32    33   ar
    26    33    34   ar
    27    34    35   ar
    28    35    36    1
    29    35    37   ar
    30    37    38   ar
    31    29    30    1
    32    30    31    1
    33     4     5   ar
    34     5     6   ar
    35    13    14   ar
    36    14    15   ar
    37    15     7   ar
    38    15    11   ar
    39     6     1   ar
    40    31    26    1
    41    38    32   ar
    42    23    24    1
@<TRIPOS>MOLECULE
*****
 38 42 0 0 0
SMALL
GASTEIGER

@<TRIPOS>ATOM
      1 C         141.6783  139.6207  162.9149 C.ar    1  UNL1        0.0536
      2 C         140.6954  140.1471  161.9116 C.ar    1  UNL1        0.0048
      3 C         140.7201  139.6399  160.5001 C.ar    1  UNL1        0.0047
      4 C         141.7276  138.6064  160.0920 C.ar    1  UNL1        0.0534
      5 C         142.7106  138.0800  161.0953 C.ar    1  UNL1        0.0047
      6 C         142.6859  138.5871  162.5068 C.ar    1  UNL1        0.0048
      7 C         140.3180  140.5988  167.9674 C.ar    1  UNL1        0.0143
      8 C         140.9349  141.4121  169.0664 C.ar    1  UNL1        0.0091
      9 C         142.2111  142.1606  168.8198 C.ar    1  UNL1        0.0698
     10 C         142.8707  142.0957  167.4741 C.ar    1  UNL1        0.0326
     11 C         142.2539  141.2823  166.3751 C.ar    1  UNL1        0.1192
     12 N         142.6717  141.0313  164.9565 N.ar    1  UNL1       -0.2082
     13 C         141.6537  140.1278  164.3264 C.ar    1  UNL1        0.2296
     14 O         140.6066  139.8203  165.3555 O.2     1  UNL1       -0.4349
     15 C         140.9775  140.5338  166.6217 C.ar    1  UNL1        0.1607
     16 C         138.4173  139.8613  169.5778 C.3     1  UNL1        0.0048
     17 C         139.0417  139.8503  168.2140 C.3     1  UNL1        0.0254
     18 C         138.3898  139.0908  167.0967 C.3     1  UNL1        0.0048
     19 C         142.8280  142.9740  169.9190 C.1     1  UNL1        0.1005
     20 N         143.4448  143.7874  171.0180 N.1     1  UNL1       -0.1908
     21 C         141.7523  138.0993  158.6805 C.2     1  UNL1        0.2458
     22 O         140.4774  138.0024  157.8961 O.2     1  UNL1       -0.2701
     23 N         143.0517  137.6891  158.0535 N.am    1  UNL1       -0.3009
     24 H         143.8884  137.7527  158.5684 H       1  UNL1        0.1497
     25 C         143.0764  137.1820  156.6420 C.3     1  UNL1        0.0896
     26 C         142.7247  135.7529  156.3523 C.3     1  UNL1        0.0196
     27 C         143.3274  134.6511  157.1726 C.3     1  UNL1        0.0020
     28 C         142.9757  133.2220  156.8828 C.3     1  UNL1        0.0044
     29 C         142.0214  132.8946  155.7728 C.3     1  UNL1        0.0223
     30 C         141.4187  133.9965  154.9525 C.3     1  UNL1        0.0044
     31 C         141.7704  135.4256  155.2422 C.3     1  UNL1        0.0020
     32 C         141.6697  131.4655  155.4830 C.ar    1  UNL1       -0.0225
     33 C         142.5617  130.3608  155.9666 C.ar    1  UNL1       -0.0034
     34 C         142.2100  128.9317  155.6768 C.ar    1  UNL1        0.0111
     35 C         140.9663  128.6073  154.9035 C.ar    1  UNL1        0.0577
     36 CL        140.6147  127.1782  154.6137 Cl      1  UNL1       -0.0822
     37 C         140.0744  129.7121  154.4199 C.ar    1  UNL1        0.0111
     38 C         140.4260  131.1412  154.7097 C.ar    1  UNL1       -0.0034
@<TRIPOS>BOND
     1    16    17    1
     2    17    18    1
     3    17     7    1
     4     7     8   ar
     5     8     9   ar
     6     9    19    1
     7    19    20    3
     8     9    10   ar
     9    10    11   ar
    10    11    12   ar
    11    12    13   ar
    12    13     1    1
    13     1     2   ar
    14     2     3   ar
    15     3     4   ar
    16     4    21    1
    17    21    22    2
    18    21    23   am
    19    23    25    1
    20    26    25    1
    21    26    27    1
    22    27    28    1
    23    28    29    1
    24    29    32    1
    25    32    33   ar
    26    33    34   ar
    27    34    35   ar
    28    35    36    1
    29    35    37   ar
    30    37    38   ar
    31    29    30    1
    32    30    31    1
    33     4     5   ar
    34     5     6   ar
    35    13    14   ar
    36    14    15   ar
    37    15     7   ar
    38    15    11   ar
    39     6     1   ar
    40    31    26    1
    41    38    32   ar
    42    23    24    1
@<TRIPOS>MOLECULE
*****
 38 42 0 0 0
SMALL
GASTEIGER

@<TRIPOS>ATOM
      1 C         141.8901  139.5223  161.4610 C.ar    1  UNL1        0.0536
      2 C         142.8753  138.4069  161.2734 C.ar    1  UNL1        0.0048
      3 C         142.9638  137.6985  159.9541 C.ar    1  UNL1        0.0047
      4 C         142.0672  138.1055  158.8226 C.ar    1  UNL1        0.0534
      5 C         141.0820  139.2209  159.0102 C.ar    1  UNL1        0.0047
      6 C         140.9935  139.9293  160.3294 C.ar    1  UNL1        0.0048
      7 C         140.3101  142.5870  165.5164 C.ar    1  UNL1        0.0143
      8 C         140.8725  142.8743  166.8769 C.ar    1  UNL1        0.0091
      9 C         142.1507  142.2219  167.3131 C.ar    1  UNL1        0.0698
     10 C         142.8667  141.2821  166.3888 C.ar    1  UNL1        0.0326
     11 C         142.3043  140.9948  165.0283 C.ar    1  UNL1        0.1192
     12 N         142.7836  140.1194  163.9085 N.ar    1  UNL1       -0.2082
     13 C         141.8015  140.2308  162.7802 C.ar    1  UNL1        0.2296
     14 O         140.7152  141.1750  163.2026 O.2     1  UNL1       -0.4349
     15 C         141.0260  141.6472  164.5920 C.ar    1  UNL1        0.1607
     16 C         137.9157  142.4054  164.5244 C.3     1  UNL1        0.0048
     17 C         139.0318  143.2394  165.0801 C.3     1  UNL1        0.0254
     18 C         138.8696  144.7259  165.1996 C.3     1  UNL1        0.0048
     19 C         142.7132  142.5093  168.6738 C.1     1  UNL1        0.1005
     20 N         143.2756  142.7966  170.0343 N.1     1  UNL1       -0.1908
     21 C         142.1558  137.3970  157.5034 C.2     1  UNL1        0.2458
     22 O         140.9039  137.0408  156.7579 O.2     1  UNL1       -0.2701
     23 N         143.4963  137.0448  156.9298 N.am    1  UNL1       -0.3009
     24 H         144.3179  137.2786  157.4191 H       1  UNL1        0.1497
     25 C         143.5849  136.3363  155.6106 C.3     1  UNL1        0.0896
     26 C         143.0908  134.9259  155.4820 C.3     1  UNL1        0.0196
     27 C         142.3644  134.4957  154.2421 C.3     1  UNL1        0.0020
     28 C         141.8703  133.0853  154.1136 C.3     1  UNL1        0.0044
     29 C         142.1025  132.1050  155.2249 C.3     1  UNL1        0.0223
     30 C         142.8289  132.5352  156.4649 C.3     1  UNL1        0.0044
     31 C         143.3230  133.9457  156.5935 C.3     1  UNL1        0.0020
     32 C         141.6084  130.6946  155.0964 C.ar    1  UNL1       -0.0225
     33 C         142.4729  129.5533  155.5437 C.ar    1  UNL1       -0.0034
     34 C         141.9788  128.1429  155.4151 C.ar    1  UNL1        0.0111
     35 C         140.6201  127.8738  154.8393 C.ar    1  UNL1        0.0577
     36 CL        140.1260  126.4634  154.7107 Cl      1  UNL1       -0.0822
     37 C         139.7556  129.0151  154.3920 C.ar    1  UNL1        0.0111
     38 C         140.2497  130.4255  154.5206 C.ar    1  UNL1       -0.0034
@<TRIPOS>BOND
     1    16    17    1
     2    17    18    1
     3    17     7    1
     4     7     8   ar
     5     8     9   ar
     6     9    19    1
     7    19    20    3
     8     9    10   ar
     9    10    11   ar
    10    11    12   ar
    11    12    13   ar
    12    13     1    1
    13     1     2   ar
    14     2     3   ar
    15     3     4   ar
    16     4    21    1
    17    21    22    2
    18    21    23   am
    19    23    25    1
    20    26    25    1
    21    26    27    1
    22    27    28    1
    23    28    29    1
    24    29    32    1
    25    32    33   ar
    26    33    34   ar
    27    34    35   ar
    28    35    36    1
    29    35    37   ar
    30    37    38   ar
    31    29    30    1
    32    30    31    1
    33     4     5   ar
    34     5     6   ar
    35    13    14   ar
    36    14    15   ar
    37    15     7   ar
    38    15    11   ar
    39     6     1   ar
    40    31    26    1
    41    38    32   ar
    42    23    24    1
@<TRIPOS>MOLECULE
*****
 38 42 0 0 0
SMALL
GASTEIGER

@<TRIPOS>ATOM
      1 C         143.2608  141.7990  161.4055 C.ar    1  UNL1        0.0536
      2 C         143.2682  140.4393  160.7722 C.ar    1  UNL1        0.0048
      3 C         143.7511  140.2714  159.3619 C.ar    1  UNL1        0.0047
      4 C         144.2266  141.4632  158.5851 C.ar    1  UNL1        0.0534
      5 C         144.2192  142.8229  159.2184 C.ar    1  UNL1        0.0047
      6 C         143.7363  142.9908  160.6286 C.ar    1  UNL1        0.0048
      7 C         140.3110  142.9043  165.6963 C.ar    1  UNL1        0.0143
      8 C         140.5457  142.7830  167.1729 C.ar    1  UNL1        0.0091
      9 C         141.8512  142.2495  167.6835 C.ar    1  UNL1        0.0698
     10 C         142.9223  141.8372  166.7175 C.ar    1  UNL1        0.0326
     11 C         142.6877  141.9586  165.2410 C.ar    1  UNL1        0.1192
     12 N         143.5504  141.6340  164.0577 N.ar    1  UNL1       -0.2082
     13 C         142.7780  141.9669  162.8157 C.ar    1  UNL1        0.2296
     14 O         141.4378  142.4973  163.2314 O.2     1  UNL1       -0.4349
     15 C         141.3820  142.4921  164.7304 C.ar    1  UNL1        0.1607
     16 C         138.0491  142.5264  164.4753 C.3     1  UNL1        0.0048
     17 C         139.0054  143.4379  165.1857 C.3     1  UNL1        0.0254
     18 C         138.6561  144.8829  165.3856 C.3     1  UNL1        0.0048
     19 C         142.0858  142.1281  169.1601 C.1     1  UNL1        0.1005
     20 N         142.3205  142.0068  170.6367 N.1     1  UNL1       -0.1908
     21 C         144.7095  141.2953  157.1749 C.2     1  UNL1        0.2458
     22 O         144.8685  139.9210  156.5953 O.2     1  UNL1       -0.2701
     23 N         145.0333  142.5016  156.3443 N.am    1  UNL1       -0.3009
     24 H         144.9289  143.4036  156.7247 H       1  UNL1        0.1497
     25 C         145.5161  142.3337  154.9341 C.3     1  UNL1        0.0896
     26 C         146.9712  142.0893  154.6637 C.3     1  UNL1        0.0196
     27 C         147.9418  142.0030  155.8040 C.3     1  UNL1        0.0020
     28 C         149.3968  141.7585  155.5336 C.3     1  UNL1        0.0044
     29 C         149.8812  141.6004  154.1228 C.3     1  UNL1        0.0223
     30 C         148.9105  141.6867  152.9824 C.3     1  UNL1        0.0044
     31 C         147.4555  141.9311  153.2528 C.3     1  UNL1        0.0020
     32 C         151.3362  141.3559  153.8524 C.ar    1  UNL1       -0.0225
     33 C         152.3388  142.4428  154.1042 C.ar    1  UNL1       -0.0034
     34 C         153.7939  142.1983  153.8338 C.ar    1  UNL1        0.0111
     35 C         154.2462  140.8669  153.3114 C.ar    1  UNL1        0.0577
     36 CL        155.7013  140.6225  153.0410 Cl      1  UNL1       -0.0822
     37 C         153.2436  139.7801  153.0596 C.ar    1  UNL1        0.0111
     38 C         151.7886  140.0245  153.3300 C.ar    1  UNL1       -0.0034
@<TRIPOS>BOND
     1    16    17    1
     2    17    18    1
     3    17     7    1
     4     7     8   ar
     5     8     9   ar
     6     9    19    1
     7    19    20    3
     8     9    10   ar
     9    10    11   ar
    10    11    12   ar
    11    12    13   ar
    12    13     1    1
    13     1     2   ar
    14     2     3   ar
    15     3     4   ar
    16     4    21    1
    17    21    22    2
    18    21    23   am
    19    23    25    1
    20    26    25    1
    21    26    27    1
    22    27    28    1
    23    28    29    1
    24    29    32    1
    25    32    33   ar
    26    33    34   ar
    27    34    35   ar
    28    35    36    1
    29    35    37   ar
    30    37    38   ar
    31    29    30    1
    32    30    31    1
    33     4     5   ar
    34     5     6   ar
    35    13    14   ar
    36    14    15   ar
    37    15     7   ar
    38    15    11   ar
    39     6     1   ar
    40    31    26    1
    41    38    32   ar
    42    23    24    1
@<TRIPOS>MOLECULE
*****
 38 42 0 0 0
SMALL
GASTEIGER

@<TRIPOS>ATOM
      1 C         141.4717  139.3791  161.5827 C.ar    1  UNL1        0.0536
      2 C         140.3925  139.2424  160.5498 C.ar    1  UNL1        0.0048
      3 C         140.7183  138.6914  159.1932 C.ar    1  UNL1        0.0047
      4 C         142.1232  138.2771  158.8695 C.ar    1  UNL1        0.0534
      5 C         143.2023  138.4138  159.9023 C.ar    1  UNL1        0.0047
      6 C         142.8765  138.9648  161.2589 C.ar    1  UNL1        0.0048
      7 C         140.1973  142.6221  165.6068 C.ar    1  UNL1        0.0143
      8 C         139.9979  142.4157  167.0791 C.ar    1  UNL1        0.0091
      9 C         140.1633  141.0487  167.6739 C.ar    1  UNL1        0.0698
     10 C         140.5280  139.8880  166.7966 C.ar    1  UNL1        0.0326
     11 C         140.7274  140.0944  165.3243 C.ar    1  UNL1        0.1192
     12 N         141.0883  139.1479  164.2179 N.ar    1  UNL1       -0.2082
     13 C         141.1460  139.9300  162.9393 C.ar    1  UNL1        0.2296
     14 O         140.8208  141.3598  163.2554 O.2     1  UNL1       -0.4349
     15 C         140.5621  141.4614  164.7294 C.ar    1  UNL1        0.1607
     16 C         138.7449  144.7368  165.1967 C.3     1  UNL1        0.0048
     17 C         140.0320  143.9891  165.0119 C.3     1  UNL1        0.0254
     18 C         141.1539  144.6084  164.2321 C.3     1  UNL1        0.0048
     19 C         139.9638  140.8424  169.1463 C.1     1  UNL1        0.1005
     20 N         139.7645  140.6360  170.6186 N.1     1  UNL1       -0.1908
     21 C         142.4489  137.7262  157.5129 C.2     1  UNL1        0.2458
     22 O         143.7318  138.1088  156.8363 O.2     1  UNL1       -0.2701
     23 N         141.4917  136.7927  156.8329 N.am    1  UNL1       -0.3009
     24 H         140.6497  136.5416  157.2770 H       1  UNL1        0.1497
     25 C         141.8174  136.2417  155.4763 C.3     1  UNL1        0.0896
     26 C         142.3971  134.8645  155.3455 C.3     1  UNL1        0.0196
     27 C         141.9370  133.9588  154.2419 C.3     1  UNL1        0.0020
     28 C         142.5167  132.5815  154.1111 C.3     1  UNL1        0.0044
     29 C         143.5565  132.1100  155.0840 C.3     1  UNL1        0.0223
     30 C         144.0167  133.0158  156.1876 C.3     1  UNL1        0.0044
     31 C         143.4370  134.3930  156.3184 C.3     1  UNL1        0.0020
     32 C         144.1362  130.7327  154.9532 C.ar    1  UNL1       -0.0225
     33 C         144.4450  130.1747  153.5956 C.ar    1  UNL1       -0.0034
     34 C         145.0247  128.7975  153.4648 C.ar    1  UNL1        0.0111
     35 C         145.2956  127.9782  154.6918 C.ar    1  UNL1        0.0577
     36 CL        145.8753  126.6010  154.5610 Cl      1  UNL1       -0.0822
     37 C         144.9869  128.5362  156.0494 C.ar    1  UNL1        0.0111
     38 C         144.4072  129.9135  156.1802 C.ar    1  UNL1       -0.0034
@<TRIPOS>BOND
     1    16    17    1
     2    17    18    1
     3    17     7    1
     4     7     8   ar
     5     8     9   ar
     6     9    19    1
     7    19    20    3
     8     9    10   ar
     9    10    11   ar
    10    11    12   ar
    11    12    13   ar
    12    13     1    1
    13     1     2   ar
    14     2     3   ar
    15     3     4   ar
    16     4    21    1
    17    21    22    2
    18    21    23   am
    19    23    25    1
    20    26    25    1
    21    26    27    1
    22    27    28    1
    23    28    29    1
    24    29    32    1
    25    32    33   ar
    26    33    34   ar
    27    34    35   ar
    28    35    36    1
    29    35    37   ar
    30    37    38   ar
    31    29    30    1
    32    30    31    1
    33     4     5   ar
    34     5     6   ar
    35    13    14   ar
    36    14    15   ar
    37    15     7   ar
    38    15    11   ar
    39     6     1   ar
    40    31    26    1
    41    38    32   ar
    42    23    24    1
@<TRIPOS>MOLECULE
*****
 38 42 0 0 0
SMALL
GASTEIGER

@<TRIPOS>ATOM
      1 C         141.2180  139.3266  161.4890 C.ar    1  UNL1        0.0536
      2 C         142.4734  138.5506  161.2213 C.ar    1  UNL1        0.0048
      3 C         142.7460  138.0163  159.8464 C.ar    1  UNL1        0.0047
      4 C         141.7633  138.2581  158.7393 C.ar    1  UNL1        0.0534
      5 C         140.5079  139.0342  159.0070 C.ar    1  UNL1        0.0047
      6 C         140.2353  139.5684  160.3819 C.ar    1  UNL1        0.0048
      7 C         140.1593  142.5298  165.6065 C.ar    1  UNL1        0.0143
      8 C         139.9883  142.3005  167.0789 C.ar    1  UNL1        0.0091
      9 C         140.1186  140.9166  167.6426 C.ar    1  UNL1        0.0698
     10 C         140.4200  139.7619  166.7338 C.ar    1  UNL1        0.0326
     11 C         140.5909  139.9911  165.2613 C.ar    1  UNL1        0.1192
     12 N         140.8905  139.0553  164.1280 N.ar    1  UNL1       -0.2082
     13 C         140.9454  139.8609  162.8639 C.ar    1  UNL1        0.2296
     14 O         140.6796  141.2946  163.2159 O.2     1  UNL1       -0.4349
     15 C         140.4606  141.3751  164.6977 C.ar    1  UNL1        0.1607
     16 C         138.7820  144.7099  165.2902 C.3     1  UNL1        0.0048
     17 C         140.0289  143.9137  165.0428 C.3     1  UNL1        0.0254
     18 C         141.1456  144.5015  164.2317 C.3     1  UNL1        0.0048
     19 C         139.9477  140.6874  169.1151 C.1     1  UNL1        0.1005
     20 N         139.7767  140.4581  170.5876 N.1     1  UNL1       -0.1908
     21 C         142.0360  137.7238  157.3644 C.2     1  UNL1        0.2458
     22 O         141.0147  137.8912  156.2786 O.2     1  UNL1       -0.2701
     23 N         143.3299  137.0222  157.0754 N.am    1  UNL1       -0.3009
     24 H         144.0002  136.9124  157.7881 H       1  UNL1        0.1497
     25 C         143.6026  136.4880  155.7005 C.3     1  UNL1        0.0896
     26 C         142.9516  135.2146  155.2480 C.3     1  UNL1        0.0196
     27 C         142.3338  135.1319  153.8836 C.3     1  UNL1        0.0020
     28 C         141.6828  133.8586  153.4310 C.3     1  UNL1        0.0044
     29 C         141.6496  132.6680  154.3428 C.3     1  UNL1        0.0223
     30 C         142.2674  132.7507  155.7073 C.3     1  UNL1        0.0044
     31 C         142.9184  134.0240  156.1598 C.3     1  UNL1        0.0020
     32 C         140.9986  131.3946  153.8903 C.ar    1  UNL1       -0.0225
     33 C         140.8379  131.1138  152.4256 C.ar    1  UNL1       -0.0034
     34 C         140.1869  129.8405  151.9730 C.ar    1  UNL1        0.0111
     35 C         139.6966  128.8479  152.9853 C.ar    1  UNL1        0.0577
     36 CL        139.0456  127.5746  152.5327 Cl      1  UNL1       -0.0822
     37 C         139.8573  129.1288  154.4499 C.ar    1  UNL1        0.0111
     38 C         140.5083  130.4021  154.9025 C.ar    1  UNL1       -0.0034
@<TRIPOS>BOND
     1    16    17    1
     2    17    18    1
     3    17     7    1
     4     7     8   ar
     5     8     9   ar
     6     9    19    1
     7    19    20    3
     8     9    10   ar
     9    10    11   ar
    10    11    12   ar
    11    12    13   ar
    12    13     1    1
    13     1     2   ar
    14     2     3   ar
    15     3     4   ar
    16     4    21    1
    17    21    22    2
    18    21    23   am
    19    23    25    1
    20    26    25    1
    21    26    27    1
    22    27    28    1
    23    28    29    1
    24    29    32    1
    25    32    33   ar
    26    33    34   ar
    27    34    35   ar
    28    35    36    1
    29    35    37   ar
    30    37    38   ar
    31    29    30    1
    32    30    31    1
    33     4     5   ar
    34     5     6   ar
    35    13    14   ar
    36    14    15   ar
    37    15     7   ar
    38    15    11   ar
    39     6     1   ar
    40    31    26    1
    41    38    32   ar
    42    23    24    1
@<TRIPOS>MOLECULE
*****
 38 42 0 0 0
SMALL
GASTEIGER

@<TRIPOS>ATOM
      1 C         140.4336  142.4725  162.1755 C.ar    1  UNL1        0.0536
      2 C         141.4797  143.1771  161.3637 C.ar    1  UNL1        0.0048
      3 C         141.1943  143.5588  159.9414 C.ar    1  UNL1        0.0047
      4 C         139.8627  143.2359  159.3309 C.ar    1  UNL1        0.0534
      5 C         138.8165  142.5313  160.1428 C.ar    1  UNL1        0.0047
      6 C         139.1020  142.1496  161.5650 C.ar    1  UNL1        0.0048
      7 C         141.9955  139.8750  166.5513 C.ar    1  UNL1        0.0143
      8 C         141.9475  140.1933  168.0164 C.ar    1  UNL1        0.0091
      9 C         141.3574  141.4908  168.4831 C.ar    1  UNL1        0.0698
     10 C         140.8152  142.4703  167.4848 C.ar    1  UNL1        0.0326
     11 C         140.8631  142.1521  166.0197 C.ar    1  UNL1        0.1192
     12 N         140.4093  142.9162  164.8113 N.ar    1  UNL1       -0.2082
     13 C         140.7190  142.0907  163.5978 C.ar    1  UNL1        0.2296
     14 O         141.3642  140.8165  164.0561 O.2     1  UNL1       -0.4349
     15 C         141.4532  140.8544  165.5530 C.ar    1  UNL1        0.1607
     16 C         141.8446  137.7300  165.0932 C.3     1  UNL1        0.0048
     17 C         142.5856  138.5774  166.0846 C.3     1  UNL1        0.0254
     18 C         143.9168  138.1271  166.6094 C.3     1  UNL1        0.0048
     19 C         141.3095  141.8091  169.9483 C.1     1  UNL1        0.1005
     20 N         141.2616  142.1273  171.4133 N.1     1  UNL1       -0.1908
     21 C         139.5773  143.6177  157.9087 C.2     1  UNL1        0.2458
     22 O         138.2495  143.2855  157.2951 O.2     1  UNL1       -0.2701
     23 N         140.6197  144.3315  157.1001 N.am    1  UNL1       -0.3009
     24 H         141.4912  144.5496  157.5029 H       1  UNL1        0.1497
     25 C         140.3343  144.7133  155.6778 C.3     1  UNL1        0.0896
     26 C         140.0511  146.1441  155.3277 C.3     1  UNL1        0.0196
     27 C         139.2118  146.9877  156.2408 C.3     1  UNL1        0.0020
     28 C         138.9286  148.4185  155.8907 C.3     1  UNL1        0.0044
     29 C         139.4848  149.0057  154.6274 C.3     1  UNL1        0.0223
     30 C         140.3241  148.1620  153.7142 C.3     1  UNL1        0.0044
     31 C         140.6073  146.7312  154.0643 C.3     1  UNL1        0.0020
     32 C         139.2016  150.4365  154.2772 C.ar    1  UNL1       -0.0225
     33 C         139.4108  150.9205  152.8730 C.ar    1  UNL1       -0.0034
     34 C         139.1276  152.3513  152.5229 C.ar    1  UNL1        0.0111
     35 C         138.6352  153.2981  153.5770 C.ar    1  UNL1        0.0577
     36 CL        138.3520  154.7289  153.2269 Cl      1  UNL1       -0.0822
     37 C         138.4260  152.8140  154.9813 C.ar    1  UNL1        0.0111
     38 C         138.7092  151.3832  155.3314 C.ar    1  UNL1       -0.0034
@<TRIPOS>BOND
     1    16    17    1
     2    17    18    1
     3    17     7    1
     4     7     8   ar
     5     8     9   ar
     6     9    19    1
     7    19    20    3
     8     9    10   ar
     9    10    11   ar
    10    11    12   ar
    11    12    13   ar
    12    13     1    1
    13     1     2   ar
    14     2     3   ar
    15     3     4   ar
    16     4    21    1
    17    21    22    2
    18    21    23   am
    19    23    25    1
    20    26    25    1
    21    26    27    1
    22    27    28    1
    23    28    29    1
    24    29    32    1
    25    32    33   ar
    26    33    34   ar
    27    34    35   ar
    28    35    36    1
    29    35    37   ar
    30    37    38   ar
    31    29    30    1
    32    30    31    1
    33     4     5   ar
    34     5     6   ar
    35    13    14   ar
    36    14    15   ar
    37    15     7   ar
    38    15    11   ar
    39     6     1   ar
    40    31    26    1
    41    38    32   ar
    42    23    24    1
@<TRIPOS>MOLECULE
*****
 38 42 0 0 0
SMALL
GASTEIGER

@<TRIPOS>ATOM
      1 C         142.4112  139.8665  162.8620 C.ar    1  UNL1        0.0536
      2 C         143.4848  138.8738  162.5276 C.ar    1  UNL1        0.0048
      3 C         143.6526  138.3979  161.1150 C.ar    1  UNL1        0.0047
      4 C         142.7468  138.9146  160.0368 C.ar    1  UNL1        0.0534
      5 C         141.6731  139.9073  160.3712 C.ar    1  UNL1        0.0047
      6 C         141.5053  140.3832  161.7838 C.ar    1  UNL1        0.0048
      7 C         140.5574  140.7163  167.7788 C.ar    1  UNL1        0.0143
      8 C         141.0531  141.5140  168.9484 C.ar    1  UNL1        0.0091
      9 C         142.3354  142.2848  168.8411 C.ar    1  UNL1        0.0698
     10 C         143.1220  142.2580  167.5640 C.ar    1  UNL1        0.0326
     11 C         142.6262  141.4604  166.3945 C.ar    1  UNL1        0.1192
     12 N         143.1821  141.2459  165.0179 N.ar    1  UNL1       -0.2082
     13 C         142.2433  140.3425  164.2745 C.ar    1  UNL1        0.2296
     14 O         141.1073  139.9987  165.1916 O.2     1  UNL1       -0.4349
     15 C         141.3439  140.6895  166.5019 C.ar    1  UNL1        0.1607
     16 C         138.5884  139.8132  169.2132 C.3     1  UNL1        0.0048
     17 C         139.2751  139.9455  167.8862 C.3     1  UNL1        0.0254
     18 C         138.6794  139.3069  166.6665 C.3     1  UNL1        0.0048
     19 C         142.8312  143.0825  170.0107 C.1     1  UNL1        0.1005
     20 N         143.3270  143.8801  171.1803 N.1     1  UNL1       -0.1908
     21 C         142.9146  138.4386  158.6243 C.2     1  UNL1        0.2458
     22 O         143.8072  139.1893  157.6810 O.2     1  UNL1       -0.2701
     23 N         142.1899  137.2119  158.1551 N.am    1  UNL1       -0.3009
     24 H         141.6041  136.7192  158.7742 H       1  UNL1        0.1497
     25 C         142.3578  136.7359  156.7426 C.3     1  UNL1        0.0896
     26 C         142.5983  135.2816  156.4647 C.3     1  UNL1        0.0196
     27 C         141.7525  134.5607  155.4574 C.3     1  UNL1        0.0020
     28 C         141.9929  133.1064  155.1796 C.3     1  UNL1        0.0044
     29 C         143.0792  132.3731  155.9091 C.3     1  UNL1        0.0223
     30 C         143.9251  133.0941  156.9166 C.3     1  UNL1        0.0044
     31 C         143.6846  134.5484  157.1944 C.3     1  UNL1        0.0020
     32 C         143.3197  130.9188  155.6313 C.ar    1  UNL1       -0.0225
     33 C         142.1670  129.9593  155.6062 C.ar    1  UNL1       -0.0034
     34 C         142.4075  128.5050  155.3284 C.ar    1  UNL1        0.0111
     35 C         143.8008  128.0102  155.0757 C.ar    1  UNL1        0.0577
     36 CL        144.0413  126.5559  154.7979 Cl      1  UNL1       -0.0822
     37 C         144.9535  128.9696  155.1008 C.ar    1  UNL1        0.0111
     38 C         144.7130  130.4239  155.3786 C.ar    1  UNL1       -0.0034
@<TRIPOS>BOND
     1    16    17    1
     2    17    18    1
     3    17     7    1
     4     7     8   ar
     5     8     9   ar
     6     9    19    1
     7    19    20    3
     8     9    10   ar
     9    10    11   ar
    10    11    12   ar
    11    12    13   ar
    12    13     1    1
    13     1     2   ar
    14     2     3   ar
    15     3     4   ar
    16     4    21    1
    17    21    22    2
    18    21    23   am
    19    23    25    1
    20    26    25    1
    21    26    27    1
    22    27    28    1
    23    28    29    1
    24    29    32    1
    25    32    33   ar
    26    33    34   ar
    27    34    35   ar
    28    35    36    1
    29    35    37   ar
    30    37    38   ar
    31    29    30    1
    32    30    31    1
    33     4     5   ar
    34     5     6   ar
    35    13    14   ar
    36    14    15   ar
    37    15     7   ar
    38    15    11   ar
    39     6     1   ar
    40    31    26    1
    41    38    32   ar
    42    23    24    1
