@<TRIPOS>MOLECULE
*****
 32 35 0 0 0
SMALL
GASTEIGER

@<TRIPOS>ATOM
      1 C         142.2494  140.6183  163.6998 C.2     1  UNL1        0.2525
      2 O         143.3093  140.4376  164.7456 O.2     1  UNL1       -0.2698
      3 N         142.3346  139.8621  162.4071 N.am    1  UNL1       -0.2660
      4 C         141.3547  139.9396  161.2741 C.3     1  UNL1        0.1236
      5 C         141.8292  139.0210  160.1873 C.ar    1  UNL1        0.0338
      6 C         141.5168  138.5012  158.8154 C.ar    1  UNL1        0.0991
      7 N         142.5969  137.5347  158.4288 N.ar    1  UNL1       -0.2265
      8 N         143.5768  137.4572  159.5619 N.ar    1  UNL1       -0.1679
      9 C         143.1023  138.3758  160.6487 C.ar    1  UNL1        0.0981
     10 C         143.4147  138.8956  162.0206 C.3     1  UNL1        0.1414
     11 C         142.6821  136.7785  157.1363 C.ar    1  UNL1        0.1102
     12 C         142.3753  137.4701  155.8411 C.ar    1  UNL1        0.0214
     13 C         142.4605  136.7139  154.5484 C.ar    1  UNL1        0.0017
     14 C         142.8525  135.2661  154.5510 C.ar    1  UNL1        0.0024
     15 C         143.1593  134.5744  155.8462 C.ar    1  UNL1        0.0312
     16 C         143.0741  135.3306  157.1388 C.ar    1  UNL1        0.1577
     17 F         143.3809  134.6390  158.4340 F       1  UNL1       -0.2026
     18 C         140.0829  141.2312  164.9963 C.ar    1  UNL1        0.1426
     19 C         138.9378  142.1681  165.2431 C.ar    1  UNL1        0.0384
     20 C         138.8139  143.4289  164.4400 C.ar    1  UNL1        0.0215
     21 C         139.8351  143.7529  163.3902 C.ar    1  UNL1        0.1061
     22 C         140.9803  142.8160  163.1435 C.ar    1  UNL1        0.0259
     23 C         141.1042  141.5551  163.9465 C.ar    1  UNL1        0.0887
     24 S         139.7112  145.0138  162.5872 S.O2    1  UNL1        0.0105
     25 C         139.5873  146.2746  161.7841 C.3     1  UNL1        0.1816
     26 O         138.2239  144.8290  162.5266 O.2     1  UNL1       -0.1686
     27 O         141.1986  145.1985  162.6478 O.2     1  UNL1       -0.1686
     28 O         140.2068  139.9703  165.7994 O.3     1  UNL1       -0.4824
     29 C         139.2520  139.8115  167.6870 C.3     1  UNL1        0.0436
     30 C         138.9757  139.2828  166.3107 C.3     1  UNL1        0.1334
     31 C         138.6994  138.7541  164.9344 C.3     1  UNL1        0.0436
     32 C         137.7446  138.5952  166.8220 C.3     1  UNL1        0.0436
@<TRIPOS>BOND
     1    29    30    1
     2    30    31    1
     3    30    32    1
     4    30    28    1
     5    28    18    1
     6    18    19   ar
     7    19    20   ar
     8    20    21   ar
     9    21    24    1
    10    24    25    1
    11    24    26    2
    12    24    27    2
    13    21    22   ar
    14    22    23   ar
    15    23     1    1
    16     1     2    2
    17     1     3   am
    18     3     4    1
    19     4     5    1
    20     5     6   ar
    21     6     7   ar
    22     7    11    1
    23    11    12   ar
    24    12    13   ar
    25    13    14   ar
    26    14    15   ar
    27    15    16   ar
    28    16    17    1
    29     7     8   ar
    30     8     9   ar
    31     9    10    1
    32    23    18   ar
    33    10     3    1
    34     9     5   ar
    35    16    11   ar
@<TRIPOS>MOLECULE
*****
 32 35 0 0 0
SMALL
GASTEIGER

@<TRIPOS>ATOM
      1 C         143.2825  139.3323  163.7576 C.2     1  UNL1        0.2525
      2 O         144.6593  138.9994  164.2511 O.2     1  UNL1       -0.2698
      3 N         142.8821  138.9781  162.3561 N.am    1  UNL1       -0.2660
      4 C         141.5476  139.2463  161.7259 C.3     1  UNL1        0.1236
      5 C         141.5868  138.7275  160.3190 C.ar    1  UNL1        0.0338
      6 C         140.7861  138.5726  159.0601 C.ar    1  UNL1        0.0991
      7 N         141.6500  137.8880  158.0426 N.ar    1  UNL1       -0.2265
      8 N         142.9846  137.6199  158.6728 N.ar    1  UNL1       -0.1679
      9 C         142.9454  138.1387  160.0797 C.ar    1  UNL1        0.0981
     10 C         143.7460  138.2936  161.3387 C.3     1  UNL1        0.1414
     11 C         141.2497  137.5339  156.6412 C.ar    1  UNL1        0.1102
     12 C         140.5275  138.5369  155.7912 C.ar    1  UNL1        0.0214
     13 C         140.1271  138.1828  154.3897 C.ar    1  UNL1        0.0017
     14 C         140.4489  136.8255  153.8381 C.ar    1  UNL1        0.0024
     15 C         141.1711  135.8224  154.6880 C.ar    1  UNL1        0.0312
     16 C         141.5715  136.1766  156.0895 C.ar    1  UNL1        0.1577
     17 F         142.2936  135.1735  156.9394 F       1  UNL1       -0.2026
     18 C         142.5550  141.4323  165.1034 C.ar    1  UNL1        0.1426
     19 C         141.5785  142.1192  166.0114 C.ar    1  UNL1        0.0384
     20 C         140.3531  141.3933  166.4817 C.ar    1  UNL1        0.0215
     21 C         140.1040  139.9803  166.0441 C.ar    1  UNL1        0.1061
     22 C         141.0806  139.2933  165.1360 C.ar    1  UNL1        0.0259
     23 C         142.3061  140.0193  164.6656 C.ar    1  UNL1        0.0887
     24 S         138.8786  139.2544  166.5144 S.O2    1  UNL1        0.0105
     25 C         137.6531  138.5284  166.9847 C.3     1  UNL1        0.1816
     26 O         138.4600  139.0382  165.0903 O.2     1  UNL1       -0.1686
     27 O         139.2972  139.4705  167.9386 O.2     1  UNL1       -0.1686
     28 O         143.7805  142.1582  164.6330 O.3     1  UNL1       -0.4824
     29 C         144.5690  143.9295  165.4938 C.3     1  UNL1        0.0436
     30 C         143.7069  143.6203  164.3059 C.3     1  UNL1        0.1334
     31 C         142.8447  143.3109  163.1180 C.3     1  UNL1        0.0436
     32 C         143.6332  145.0822  163.9787 C.3     1  UNL1        0.0436
@<TRIPOS>BOND
     1    29    30    1
     2    30    31    1
     3    30    32    1
     4    30    28    1
     5    28    18    1
     6    18    19   ar
     7    19    20   ar
     8    20    21   ar
     9    21    24    1
    10    24    25    1
    11    24    26    2
    12    24    27    2
    13    21    22   ar
    14    22    23   ar
    15    23     1    1
    16     1     2    2
    17     1     3   am
    18     3     4    1
    19     4     5    1
    20     5     6   ar
    21     6     7   ar
    22     7    11    1
    23    11    12   ar
    24    12    13   ar
    25    13    14   ar
    26    14    15   ar
    27    15    16   ar
    28    16    17    1
    29     7     8   ar
    30     8     9   ar
    31     9    10    1
    32    23    18   ar
    33    10     3    1
    34     9     5   ar
    35    16    11   ar
@<TRIPOS>MOLECULE
*****
 32 35 0 0 0
SMALL
GASTEIGER

@<TRIPOS>ATOM
      1 C         142.5742  142.5701  165.3789 C.2     1  UNL1        0.2525
      2 O         143.9863  142.8564  165.7960 O.2     1  UNL1       -0.2698
      3 N         142.0953  142.9840  164.0190 N.am    1  UNL1       -0.2660
      4 C         140.7184  142.7664  163.4651 C.3     1  UNL1        0.1236
      5 C         140.6814  143.3361  162.0780 C.ar    1  UNL1        0.0338
      6 C         139.8076  143.5537  160.8784 C.ar    1  UNL1        0.0991
      7 N         140.6215  144.2579  159.8335 N.ar    1  UNL1       -0.2265
      8 N         141.9985  144.4754  160.3874 N.ar    1  UNL1       -0.1679
      9 C         142.0355  143.9057  161.7746 C.ar    1  UNL1        0.0981
     10 C         142.9093  143.6881  162.9741 C.3     1  UNL1        0.1414
     11 C         140.1427  144.6718  158.4737 C.ar    1  UNL1        0.1102
     12 C         140.3167  146.0898  158.0168 C.ar    1  UNL1        0.0214
     13 C         139.8378  146.5038  156.6568 C.ar    1  UNL1        0.0017
     14 C         139.1849  145.4996  155.7538 C.ar    1  UNL1        0.0024
     15 C         139.0109  144.0815  156.2108 C.ar    1  UNL1        0.0312
     16 C         139.4898  143.6676  157.5706 C.ar    1  UNL1        0.1577
     17 F         139.3157  142.2495  158.0276 F       1  UNL1       -0.2026
     18 C         141.1055  140.5118  165.9763 C.ar    1  UNL1        0.1426
     19 C         140.1723  139.8117  166.9191 C.ar    1  UNL1        0.0384
     20 C         139.7746  140.4694  168.2072 C.ar    1  UNL1        0.0215
     21 C         140.3101  141.8273  168.5526 C.ar    1  UNL1        0.1061
     22 C         141.2433  142.5275  167.6097 C.ar    1  UNL1        0.0259
     23 C         141.6410  141.8698  166.3216 C.ar    1  UNL1        0.0887
     24 S         139.9124  142.4850  169.8407 S.O2    1  UNL1        0.0105
     25 C         139.5147  143.1427  171.1288 C.3     1  UNL1        0.1816
     26 O         140.1448  143.8326  169.2244 O.2     1  UNL1       -0.1686
     27 O         139.6799  141.1373  170.4570 O.2     1  UNL1       -0.1686
     28 O         141.5032  139.8542  164.6882 O.3     1  UNL1       -0.4824
     29 C         142.5992  138.1546  165.3288 C.3     1  UNL1        0.0436
     30 C         141.3511  138.3708  164.5252 C.3     1  UNL1        0.1334
     31 C         140.1031  138.5871  163.7217 C.3     1  UNL1        0.0436
     32 C         141.1990  136.8876  164.3623 C.3     1  UNL1        0.0436
@<TRIPOS>BOND
     1    29    30    1
     2    30    31    1
     3    30    32    1
     4    30    28    1
     5    28    18    1
     6    18    19   ar
     7    19    20   ar
     8    20    21   ar
     9    21    24    1
    10    24    25    1
    11    24    26    2
    12    24    27    2
    13    21    22   ar
    14    22    23   ar
    15    23     1    1
    16     1     2    2
    17     1     3   am
    18     3     4    1
    19     4     5    1
    20     5     6   ar
    21     6     7   ar
    22     7    11    1
    23    11    12   ar
    24    12    13   ar
    25    13    14   ar
    26    14    15   ar
    27    15    16   ar
    28    16    17    1
    29     7     8   ar
    30     8     9   ar
    31     9    10    1
    32    23    18   ar
    33    10     3    1
    34     9     5   ar
    35    16    11   ar
@<TRIPOS>MOLECULE
*****
 32 35 0 0 0
SMALL
GASTEIGER

@<TRIPOS>ATOM
      1 C         144.4172  141.6807  163.9231 C.2     1  UNL1        0.2525
      2 O         145.9163  141.7324  163.9102 O.2     1  UNL1       -0.2698
      3 N         143.6377  142.2325  162.7664 N.am    1  UNL1       -0.2660
      4 C         142.1433  142.2508  162.6389 C.3     1  UNL1        0.1236
      5 C         141.7978  142.8924  161.3278 C.ar    1  UNL1        0.0338
      6 C         140.6607  143.3003  160.4387 C.ar    1  UNL1        0.0991
      7 N         141.2388  143.9306  159.2063 N.ar    1  UNL1       -0.2265
      8 N         142.7333  143.9123  159.3339 N.ar    1  UNL1       -0.1679
      9 C         143.0788  143.2706  160.6450 C.ar    1  UNL1        0.0981
     10 C         144.2159  142.8628  161.5341 C.3     1  UNL1        0.1414
     11 C         140.4594  144.4823  158.0497 C.ar    1  UNL1        0.1102
     12 C         140.5310  145.9454  157.7266 C.ar    1  UNL1        0.0214
     13 C         139.7516  146.4972  156.5699 C.ar    1  UNL1        0.0017
     14 C         138.9004  145.5859  155.7362 C.ar    1  UNL1        0.0024
     15 C         138.8288  144.1227  156.0592 C.ar    1  UNL1        0.0312
     16 C         139.6082  143.5710  157.2159 C.ar    1  UNL1        0.1577
     17 F         139.5365  142.1080  157.5389 F       1  UNL1       -0.2026
     18 C         143.4012  139.6070  165.1138 C.ar    1  UNL1        0.1426
     19 C         142.6817  139.0037  166.2835 C.ar    1  UNL1        0.0384
     20 C         142.2585  139.8705  167.4322 C.ar    1  UNL1        0.0215
     21 C         142.5549  141.3408  167.4112 C.ar    1  UNL1        0.1061
     22 C         143.2745  141.9442  166.2414 C.ar    1  UNL1        0.0259
     23 C         143.6977  141.0773  165.0928 C.ar    1  UNL1        0.0887
     24 S         142.1317  142.2077  168.5598 S.O2    1  UNL1        0.0105
     25 C         141.7085  143.0745  169.7085 C.3     1  UNL1        0.1816
     26 O         140.7106  141.7673  168.3687 O.2     1  UNL1       -0.1686
     27 O         143.5528  142.6481  168.7510 O.2     1  UNL1       -0.1686
     28 O         143.8244  138.7401  163.9652 O.3     1  UNL1       -0.4824
     29 C         144.0163  138.8675  161.8564 C.3     1  UNL1        0.0436
     30 C         142.9007  138.5331  162.8016 C.3     1  UNL1        0.1334
     31 C         141.7851  138.1987  163.7470 C.3     1  UNL1        0.0436
     32 C         141.9769  138.3261  161.6382 C.3     1  UNL1        0.0436
@<TRIPOS>BOND
     1    29    30    1
     2    30    31    1
     3    30    32    1
     4    30    28    1
     5    28    18    1
     6    18    19   ar
     7    19    20   ar
     8    20    21   ar
     9    21    24    1
    10    24    25    1
    11    24    26    2
    12    24    27    2
    13    21    22   ar
    14    22    23   ar
    15    23     1    1
    16     1     2    2
    17     1     3   am
    18     3     4    1
    19     4     5    1
    20     5     6   ar
    21     6     7   ar
    22     7    11    1
    23    11    12   ar
    24    12    13   ar
    25    13    14   ar
    26    14    15   ar
    27    15    16   ar
    28    16    17    1
    29     7     8   ar
    30     8     9   ar
    31     9    10    1
    32    23    18   ar
    33    10     3    1
    34     9     5   ar
    35    16    11   ar
@<TRIPOS>MOLECULE
*****
 32 35 0 0 0
SMALL
GASTEIGER

@<TRIPOS>ATOM
      1 C         142.2305  140.6048  159.9526 C.2     1  UNL1        0.2525
      2 O         141.3756  139.3984  159.7001 O.2     1  UNL1       -0.2698
      3 N         143.3505  140.9403  159.0129 N.am    1  UNL1       -0.2660
      4 C         144.2843  142.1078  159.1354 C.3     1  UNL1        0.1236
      5 C         145.2443  142.0562  157.9840 C.ar    1  UNL1        0.0338
      6 C         146.4147  142.7459  157.3480 C.ar    1  UNL1        0.0991
      7 N         146.7977  141.9728  156.1209 N.ar    1  UNL1       -0.2265
      8 N         145.8638  140.8053  155.9985 N.ar    1  UNL1       -0.1679
      9 C         144.9038  140.8569  157.1499 C.ar    1  UNL1        0.0981
     10 C         143.7334  140.1672  157.7858 C.3     1  UNL1        0.1414
     11 C         147.9176  142.3083  155.1813 C.ar    1  UNL1        0.1102
     12 C         149.2430  141.6192  155.3177 C.ar    1  UNL1        0.0214
     13 C         150.3631  141.9546  154.3781 C.ar    1  UNL1        0.0017
     14 C         150.1578  142.9792  153.3019 C.ar    1  UNL1        0.0024
     15 C         148.8323  143.6683  153.1655 C.ar    1  UNL1        0.0312
     16 C         147.7124  143.3329  154.1051 C.ar    1  UNL1        0.1577
     17 F         146.3870  144.0220  153.9687 F       1  UNL1       -0.2026
     18 C         142.3776  141.0200  162.5131 C.ar    1  UNL1        0.1426
     19 C         142.1124  141.8910  163.7052 C.ar    1  UNL1        0.0384
     20 C         141.4349  143.2176  163.5290 C.ar    1  UNL1        0.0215
     21 C         141.0226  143.6733  162.1607 C.ar    1  UNL1        0.1061
     22 C         141.2878  142.8023  160.9685 C.ar    1  UNL1        0.0259
     23 C         141.9653  141.4757  161.1447 C.ar    1  UNL1        0.0887
     24 S         140.3451  145.0000  161.9845 S.O2    1  UNL1        0.0105
     25 C         139.6676  146.3266  161.8083 C.3     1  UNL1        0.1816
     26 O         139.4372  144.3992  160.9526 O.2     1  UNL1       -0.1686
     27 O         141.2531  145.6006  163.0164 O.2     1  UNL1       -0.1686
     28 O         143.0551  139.6934  162.6893 O.3     1  UNL1       -0.4824
     29 C         142.1418  138.5665  164.2372 C.3     1  UNL1        0.0436
     30 C         143.4704  139.2391  164.0572 C.3     1  UNL1        0.1334
     31 C         144.7990  139.9118  163.8772 C.3     1  UNL1        0.0436
     32 C         143.8857  138.7849  165.4250 C.3     1  UNL1        0.0436
@<TRIPOS>BOND
     1    29    30    1
     2    30    31    1
     3    30    32    1
     4    30    28    1
     5    28    18    1
     6    18    19   ar
     7    19    20   ar
     8    20    21   ar
     9    21    24    1
    10    24    25    1
    11    24    26    2
    12    24    27    2
    13    21    22   ar
    14    22    23   ar
    15    23     1    1
    16     1     2    2
    17     1     3   am
    18     3     4    1
    19     4     5    1
    20     5     6   ar
    21     6     7   ar
    22     7    11    1
    23    11    12   ar
    24    12    13   ar
    25    13    14   ar
    26    14    15   ar
    27    15    16   ar
    28    16    17    1
    29     7     8   ar
    30     8     9   ar
    31     9    10    1
    32    23    18   ar
    33    10     3    1
    34     9     5   ar
    35    16    11   ar
@<TRIPOS>MOLECULE
*****
 32 35 0 0 0
SMALL
GASTEIGER

@<TRIPOS>ATOM
      1 C         143.6064  141.4429  164.0035 C.2     1  UNL1        0.2525
      2 O         144.8858  142.2214  164.0878 O.2     1  UNL1       -0.2698
      3 N         143.2920  140.6481  162.7708 N.am    1  UNL1       -0.2660
      4 C         142.0588  139.8249  162.5432 C.3     1  UNL1        0.1236
      5 C         142.1603  139.2050  161.1811 C.ar    1  UNL1        0.0338
      6 C         141.4608  138.3132  160.1986 C.ar    1  UNL1        0.0991
      7 N         142.3243  138.2020  158.9770 N.ar    1  UNL1       -0.2265
      8 N         143.5575  139.0252  159.2047 N.ar    1  UNL1       -0.1679
      9 C         143.4561  139.6451  160.5668 C.ar    1  UNL1        0.0981
     10 C         144.1555  140.5369  161.5494 C.3     1  UNL1        0.1414
     11 C         142.0100  137.4072  157.7444 C.ar    1  UNL1        0.1102
     12 C         142.9753  136.3685  157.2553 C.ar    1  UNL1        0.0214
     13 C         142.6609  135.5737  156.0226 C.ar    1  UNL1        0.0017
     14 C         141.3812  135.8176  155.2791 C.ar    1  UNL1        0.0024
     15 C         140.4158  136.8563  155.7683 C.ar    1  UNL1        0.0312
     16 C         140.7302  137.6511  157.0009 C.ar    1  UNL1        0.1577
     17 F         139.7649  138.6897  157.4901 F       1  UNL1       -0.2026
     18 C         141.4100  142.3131  165.0846 C.ar    1  UNL1        0.1426
     19 C         140.4451  142.3294  166.2329 C.ar    1  UNL1        0.0384
     20 C         140.7115  141.4918  167.4484 C.ar    1  UNL1        0.0215
     21 C         141.9429  140.6379  167.5157 C.ar    1  UNL1        0.1061
     22 C         142.9079  140.6217  166.3673 C.ar    1  UNL1        0.0259
     23 C         142.6414  141.4592  165.1517 C.ar    1  UNL1        0.0887
     24 S         142.2094  139.8004  168.7312 S.O2    1  UNL1        0.0105
     25 C         142.4758  138.9628  169.9467 C.3     1  UNL1        0.1816
     26 O         143.1573  138.9506  167.9379 O.2     1  UNL1       -0.1686
     27 O         141.2614  140.6502  169.5245 O.2     1  UNL1       -0.1686
     28 O         141.1435  143.1507  163.8691 O.3     1  UNL1       -0.4824
     29 C         139.4456  142.2553  162.9660 C.3     1  UNL1        0.0436
     30 C         139.7463  143.5998  163.5593 C.3     1  UNL1        0.1334
     31 C         140.0470  144.9443  164.1525 C.3     1  UNL1        0.0436
     32 C         138.3491  144.0489  163.2495 C.3     1  UNL1        0.0436
@<TRIPOS>BOND
     1    29    30    1
     2    30    31    1
     3    30    32    1
     4    30    28    1
     5    28    18    1
     6    18    19   ar
     7    19    20   ar
     8    20    21   ar
     9    21    24    1
    10    24    25    1
    11    24    26    2
    12    24    27    2
    13    21    22   ar
    14    22    23   ar
    15    23     1    1
    16     1     2    2
    17     1     3   am
    18     3     4    1
    19     4     5    1
    20     5     6   ar
    21     6     7   ar
    22     7    11    1
    23    11    12   ar
    24    12    13   ar
    25    13    14   ar
    26    14    15   ar
    27    15    16   ar
    28    16    17    1
    29     7     8   ar
    30     8     9   ar
    31     9    10    1
    32    23    18   ar
    33    10     3    1
    34     9     5   ar
    35    16    11   ar
@<TRIPOS>MOLECULE
*****
 32 35 0 0 0
SMALL
GASTEIGER

@<TRIPOS>ATOM
      1 C         140.6027  138.7761  163.7153 C.2     1  UNL1        0.2525
      2 O         140.6353  137.2767  163.7392 O.2     1  UNL1       -0.2698
      3 N         140.1321  139.4966  162.4866 N.am    1  UNL1       -0.2660
      4 C         140.0448  140.9843  162.3160 C.3     1  UNL1        0.1236
      5 C         139.5250  141.2629  160.9368 C.ar    1  UNL1        0.0338
      6 C         139.1498  142.3545  159.9790 C.ar    1  UNL1        0.0991
      7 N         138.6839  141.7138  158.7052 N.ar    1  UNL1       -0.2265
      8 N         138.7712  140.2260  158.8759 N.ar    1  UNL1       -0.1679
      9 C         139.2910  139.9474  160.2551 C.ar    1  UNL1        0.0981
     10 C         139.6663  138.8557  161.2129 C.3     1  UNL1        0.1414
     11 C         138.2134  142.4342  157.4766 C.ar    1  UNL1        0.1102
     12 C         138.9666  143.6298  156.9735 C.ar    1  UNL1        0.0214
     13 C         138.4961  144.3503  155.7449 C.ar    1  UNL1        0.0017
     14 C         137.2723  143.8750  155.0193 C.ar    1  UNL1        0.0024
     15 C         136.5190  142.6793  155.5224 C.ar    1  UNL1        0.0312
     16 C         136.9895  141.9590  156.7510 C.ar    1  UNL1        0.1577
     17 F         136.2363  140.7633  157.2541 F       1  UNL1       -0.2026
     18 C         142.3254  140.3285  164.8868 C.ar    1  UNL1        0.1426
     19 C         142.7633  141.1075  166.0916 C.ar    1  UNL1        0.0384
     20 C         141.9163  141.1131  167.3296 C.ar    1  UNL1        0.0215
     21 C         140.6315  140.3398  167.3628 C.ar    1  UNL1        0.1061
     22 C         140.1936  139.5608  166.1580 C.ar    1  UNL1        0.0259
     23 C         141.0406  139.5551  164.9200 C.ar    1  UNL1        0.0887
     24 S         139.7845  140.3454  168.6008 S.O2    1  UNL1        0.0105
     25 C         138.9376  140.3511  169.8388 C.3     1  UNL1        0.1816
     26 O         138.8398  139.3730  167.9590 O.2     1  UNL1       -0.1686
     27 O         140.7293  141.3179  169.2426 O.2     1  UNL1       -0.1686
     28 O         143.1724  140.3229  163.6488 O.3     1  UNL1       -0.4824
     29 C         143.9618  142.2150  163.1042 C.3     1  UNL1        0.0436
     30 C         144.5351  140.9494  163.6695 C.3     1  UNL1        0.1334
     31 C         145.1083  139.6837  164.2348 C.3     1  UNL1        0.0436
     32 C         145.8978  141.5758  163.6902 C.3     1  UNL1        0.0436
@<TRIPOS>BOND
     1    29    30    1
     2    30    31    1
     3    30    32    1
     4    30    28    1
     5    28    18    1
     6    18    19   ar
     7    19    20   ar
     8    20    21   ar
     9    21    24    1
    10    24    25    1
    11    24    26    2
    12    24    27    2
    13    21    22   ar
    14    22    23   ar
    15    23     1    1
    16     1     2    2
    17     1     3   am
    18     3     4    1
    19     4     5    1
    20     5     6   ar
    21     6     7   ar
    22     7    11    1
    23    11    12   ar
    24    12    13   ar
    25    13    14   ar
    26    14    15   ar
    27    15    16   ar
    28    16    17    1
    29     7     8   ar
    30     8     9   ar
    31     9    10    1
    32    23    18   ar
    33    10     3    1
    34     9     5   ar
    35    16    11   ar
@<TRIPOS>MOLECULE
*****
 32 35 0 0 0
SMALL
GASTEIGER

@<TRIPOS>ATOM
      1 C         139.3651  142.5427  164.5888 C.2     1  UNL1        0.2525
      2 O         138.1788  143.4547  164.4858 O.2     1  UNL1       -0.2698
      3 N         140.2663  142.3477  163.4057 N.am    1  UNL1       -0.2660
      4 C         141.4834  141.4722  163.3591 C.3     1  UNL1        0.1236
      5 C         142.0778  141.5775  161.9860 C.ar    1  UNL1        0.0338
      6 C         143.1974  141.1015  161.1086 C.ar    1  UNL1        0.0991
      7 N         143.0398  141.7479  159.7642 N.ar    1  UNL1       -0.2265
      8 N         141.8227  142.6235  159.8108 N.ar    1  UNL1       -0.1679
      9 C         141.2282  142.5181  161.1839 C.ar    1  UNL1        0.0981
     10 C         140.1086  142.9942  162.0613 C.3     1  UNL1        0.1414
     11 C         143.9409  141.5530  158.5810 C.ar    1  UNL1        0.1102
     12 C         145.0603  142.5177  158.3239 C.ar    1  UNL1        0.0214
     13 C         145.9615  142.3228  157.1407 C.ar    1  UNL1        0.0017
     14 C         145.7432  141.1632  156.2146 C.ar    1  UNL1        0.0024
     15 C         144.6237  140.1984  156.4718 C.ar    1  UNL1        0.0312
     16 C         143.7226  140.3933  157.6549 C.ar    1  UNL1        0.1577
     17 F         142.6031  139.4286  157.9121 F       1  UNL1       -0.2026
     18 C         139.0375  140.4816  166.1364 C.ar    1  UNL1        0.1426
     19 C         139.3228  139.7645  167.4226 C.ar    1  UNL1        0.0384
     20 C         140.2208  140.3913  168.4476 C.ar    1  UNL1        0.0215
     21 C         140.8337  141.7353  168.1863 C.ar    1  UNL1        0.1061
     22 C         140.5484  142.4523  166.9000 C.ar    1  UNL1        0.0259
     23 C         139.6503  141.8255  165.8751 C.ar    1  UNL1        0.0887
     24 S         141.7317  142.3621  169.2113 S.O2    1  UNL1        0.0105
     25 C         142.6298  142.9889  170.2363 C.3     1  UNL1        0.1816
     26 O         142.8792  142.2939  168.2476 O.2     1  UNL1       -0.1686
     27 O         140.5842  142.4302  170.1750 O.2     1  UNL1       -0.1686
     28 O         138.1395  139.8548  165.1114 O.3     1  UNL1       -0.4824
     29 C         138.0116  139.7758  162.9954 C.3     1  UNL1        0.0436
     30 C         138.7188  138.9720  164.0460 C.3     1  UNL1        0.1334
     31 C         139.4260  138.1682  165.0967 C.3     1  UNL1        0.0436
     32 C         139.2982  138.0892  162.9807 C.3     1  UNL1        0.0436
@<TRIPOS>BOND
     1    29    30    1
     2    30    31    1
     3    30    32    1
     4    30    28    1
     5    28    18    1
     6    18    19   ar
     7    19    20   ar
     8    20    21   ar
     9    21    24    1
    10    24    25    1
    11    24    26    2
    12    24    27    2
    13    21    22   ar
    14    22    23   ar
    15    23     1    1
    16     1     2    2
    17     1     3   am
    18     3     4    1
    19     4     5    1
    20     5     6   ar
    21     6     7   ar
    22     7    11    1
    23    11    12   ar
    24    12    13   ar
    25    13    14   ar
    26    14    15   ar
    27    15    16   ar
    28    16    17    1
    29     7     8   ar
    30     8     9   ar
    31     9    10    1
    32    23    18   ar
    33    10     3    1
    34     9     5   ar
    35    16    11   ar
@<TRIPOS>MOLECULE
*****
 32 35 0 0 0
SMALL
GASTEIGER

@<TRIPOS>ATOM
      1 C         139.4980  139.4265  165.2205 C.2     1  UNL1        0.2525
      2 O         138.5895  138.2341  165.2739 O.2     1  UNL1       -0.2698
      3 N         139.5415  140.2817  163.9889 N.am    1  UNL1       -0.2660
      4 C         140.3955  141.4987  163.7903 C.3     1  UNL1        0.1236
      5 C         140.1203  142.0391  162.4184 C.ar    1  UNL1        0.0338
      6 C         140.4781  143.1253  161.4477 C.ar    1  UNL1        0.0991
      7 N         139.6752  142.9136  160.1984 N.ar    1  UNL1       -0.2265
      8 N         138.8212  141.6965  160.3971 N.ar    1  UNL1       -0.1679
      9 C         139.0963  141.1561  161.7690 C.ar    1  UNL1        0.0981
     10 C         138.7386  140.0699  162.7397 C.3     1  UNL1        0.1414
     11 C         139.7186  143.7687  158.9669 C.ar    1  UNL1        0.1102
     12 C         140.2770  145.1591  159.0385 C.ar    1  UNL1        0.0214
     13 C         140.3205  146.0143  157.8070 C.ar    1  UNL1        0.0017
     14 C         139.8056  145.4791  156.5037 C.ar    1  UNL1        0.0024
     15 C         139.2471  144.0887  156.4321 C.ar    1  UNL1        0.0312
     16 C         139.2037  143.2336  157.6636 C.ar    1  UNL1        0.1577
     17 F         138.6453  141.8432  157.5920 F       1  UNL1       -0.2026
     18 C         141.7249  139.1486  166.5297 C.ar    1  UNL1        0.1426
     19 C         142.5899  139.4858  167.7078 C.ar    1  UNL1        0.0384
     20 C         142.0931  140.4380  168.7549 C.ar    1  UNL1        0.0215
     21 C         140.7313  141.0531  168.6239 C.ar    1  UNL1        0.1061
     22 C         139.8663  140.7159  167.4457 C.ar    1  UNL1        0.0259
     23 C         140.3631  139.7636  166.3986 C.ar    1  UNL1        0.0887
     24 S         140.2346  142.0054  169.6710 S.O2    1  UNL1        0.0105
     25 C         139.7379  142.9577  170.7181 C.3     1  UNL1        0.1816
     26 O         140.4798  143.1562  168.7407 O.2     1  UNL1       -0.1686
     27 O         139.9894  140.8545  170.6013 O.2     1  UNL1       -0.1686
     28 O         142.2216  138.1963  165.4826 O.3     1  UNL1       -0.4824
     29 C         143.6457  139.6811  164.9654 C.3     1  UNL1        0.0436
     30 C         142.7850  138.7233  164.1961 C.3     1  UNL1        0.1334
     31 C         141.9243  137.7654  163.4269 C.3     1  UNL1        0.0436
     32 C         143.3483  139.2503  162.9098 C.3     1  UNL1        0.0436
@<TRIPOS>BOND
     1    29    30    1
     2    30    31    1
     3    30    32    1
     4    30    28    1
     5    28    18    1
     6    18    19   ar
     7    19    20   ar
     8    20    21   ar
     9    21    24    1
    10    24    25    1
    11    24    26    2
    12    24    27    2
    13    21    22   ar
    14    22    23   ar
    15    23     1    1
    16     1     2    2
    17     1     3   am
    18     3     4    1
    19     4     5    1
    20     5     6   ar
    21     6     7   ar
    22     7    11    1
    23    11    12   ar
    24    12    13   ar
    25    13    14   ar
    26    14    15   ar
    27    15    16   ar
    28    16    17    1
    29     7     8   ar
    30     8     9   ar
    31     9    10    1
    32    23    18   ar
    33    10     3    1
    34     9     5   ar
    35    16    11   ar
