@<TRIPOS>MOLECULE
*****
 34 38 0 0 0
SMALL
GASTEIGER

@<TRIPOS>ATOM
      1 N         139.9238  141.5687  165.7553 N.3     1  UNL1       -0.2678
      2 C         140.4932  142.3137  166.9260 C.3     1  UNL1        0.1038
      3 C         140.4897  141.9236  168.3744 C.ar    1  UNL1        0.0470
      4 C         141.1689  142.9579  169.2223 C.ar    1  UNL1        0.0989
      5 N         141.2744  142.7604  170.7054 N.ar    1  UNL1       -0.2424
      6 C         140.7006  141.5287  171.3408 C.ar    1  UNL1        0.1020
      7 C         140.0214  140.4944  170.4930 C.ar    1  UNL1        0.0573
      8 C         139.9159  140.6919  169.0098 C.ar    1  UNL1        0.1389
      9 O         139.2039  139.5462  168.3536 O.3     1  UNL1       -0.4742
     10 C         138.8898  139.3492  166.9002 C.3     1  UNL1        0.2215
     11 C         139.2103  140.2493  165.7438 C.3     1  UNL1        0.1061
     12 N         140.4222  143.5539  161.7478 N.pl3   1  UNL1       -0.2769
     13 C         139.0877  143.5712  162.4325 C.3     1  UNL1        0.0950
     14 C         138.9216  142.9094  163.7684 C.3     1  UNL1        0.0375
     15 C         140.0899  142.2304  164.4195 C.3     1  UNL1        0.0613
     16 C         141.4245  142.2131  163.7347 C.3     1  UNL1        0.0375
     17 C         141.5905  142.8749  162.3989 C.3     1  UNL1        0.0950
     18 N         142.4843  146.2372  157.6946 N.pl3   1  UNL1       -0.3278
     19 C         141.5361  145.4490  158.5489 C.ar    1  UNL1        0.2099
     20 N         141.8059  144.9526  159.9384 N.ar    1  UNL1       -0.1804
     21 C         140.5883  144.2156  160.4120 C.ar    1  UNL1        0.2395
     22 N         139.5659  144.2565  159.3151 N.ar    1  UNL1       -0.1349
     23 N         140.1517  145.0189  158.1636 N.ar    1  UNL1       -0.2453
     24 H         143.3765  146.4726  158.0377 H       1  UNL1        0.1451
     25 H         142.2143  146.5192  156.7908 H       1  UNL1        0.1451
     26 H         139.7059  145.2043  157.3057 H       1  UNL1        0.1919
     27 C         138.7572  139.7661  164.3980 C.3     1  UNL1        0.0461
     28 C         139.7527  139.1962  163.4316 C.ar    1  UNL1       -0.0207
     29 C         139.6083  139.4614  161.9622 C.ar    1  UNL1       -0.0034
     30 C         140.6038  138.8915  160.9958 C.ar    1  UNL1        0.0111
     31 C         141.7438  138.0562  161.4986 C.ar    1  UNL1        0.0577
     32 CL        142.7393  137.4863  160.5321 Cl      1  UNL1       -0.0822
     33 C         141.8882  137.7910  162.9678 C.ar    1  UNL1        0.0111
     34 C         140.8927  138.3609  163.9344 C.ar    1  UNL1       -0.0034
@<TRIPOS>BOND
     1    18    19    1
     2    19    20   ar
     3    20    21   ar
     4    21    12    1
     5    12    13    1
     6    13    14    1
     7    14    15    1
     8    15     1    1
     9     1     2    1
    10     2     3    1
    11     3     4   ar
    12     4     5   ar
    13     5     6   ar
    14     6     7   ar
    15     7     8   ar
    16     8     9    1
    17     9    10    1
    18    10    11    1
    19    11    27    1
    20    27    28    1
    21    28    29   ar
    22    29    30   ar
    23    30    31   ar
    24    31    32    1
    25    31    33   ar
    26    33    34   ar
    27    15    16    1
    28    16    17    1
    29    21    22   ar
    30    22    23   ar
    31    23    19   ar
    32    17    12    1
    33    11     1    1
    34    34    28   ar
    35     8     3   ar
    36    18    24    1
    37    18    25    1
    38    23    26    1
@<TRIPOS>MOLECULE
*****
 34 38 0 0 0
SMALL
GASTEIGER

@<TRIPOS>ATOM
      1 N         142.1853  141.4004  165.9707 N.3     1  UNL1       -0.2678
      2 C         142.0369  142.1837  167.2412 C.3     1  UNL1        0.1038
      3 C         142.2282  141.7188  168.6545 C.ar    1  UNL1        0.0470
      4 C         141.9793  142.8269  169.6344 C.ar    1  UNL1        0.0989
      5 N         142.1174  142.5717  171.1060 N.ar    1  UNL1       -0.2424
      6 C         142.5045  141.2084  171.5978 C.ar    1  UNL1        0.1020
      7 C         142.7533  140.1004  170.6179 C.ar    1  UNL1        0.0573
      8 C         142.6152  140.3556  169.1462 C.ar    1  UNL1        0.1389
      9 O         142.9065  139.1206  168.3462 O.3     1  UNL1       -0.4742
     10 C         142.8827  138.9438  166.8568 C.3     1  UNL1        0.2215
     11 C         142.5618  139.9584  165.7996 C.3     1  UNL1        0.1061
     12 N         141.3972  143.6767  162.1698 N.pl3   1  UNL1       -0.2769
     13 C         140.2506  143.1350  162.9710 C.3     1  UNL1        0.0950
     14 C         140.5134  142.3762  164.2380 C.3     1  UNL1        0.0375
     15 C         141.9226  142.1591  164.7038 C.3     1  UNL1        0.0613
     16 C         143.0692  142.7009  163.9025 C.3     1  UNL1        0.0375
     17 C         142.8065  143.4597  162.6356 C.3     1  UNL1        0.0950
     18 N         142.1110  146.1837  157.5779 N.pl3   1  UNL1       -0.3278
     19 C         141.4626  145.5879  158.7922 C.ar    1  UNL1        0.2099
     20 N         142.1651  144.8568  159.8976 N.ar    1  UNL1       -0.1804
     21 C         141.1345  144.4355  160.9029 C.ar    1  UNL1        0.2395
     22 N         139.7951  144.9063  160.4187 N.ar    1  UNL1       -0.1349
     23 N         139.9979  145.6185  159.1142 N.ar    1  UNL1       -0.2453
     24 H         143.0851  146.1117  157.4546 H       1  UNL1        0.1451
     25 H         141.5625  146.6469  156.9042 H       1  UNL1        0.1451
     26 H         139.2934  146.0333  158.5657 H       1  UNL1        0.1919
     27 C         142.6257  139.4660  164.3842 C.3     1  UNL1        0.0461
     28 C         141.3670  139.0734  163.6691 C.ar    1  UNL1       -0.0207
     29 C         141.2131  139.3662  162.2060 C.ar    1  UNL1       -0.0034
     30 C         139.9543  138.9736  161.4909 C.ar    1  UNL1        0.0111
     31 C         138.8494  138.2882  162.2389 C.ar    1  UNL1        0.0577
     32 CL        137.5907  137.8956  161.5237 Cl      1  UNL1       -0.0822
     33 C         139.0033  137.9954  163.7019 C.ar    1  UNL1        0.0111
     34 C         140.2621  138.3880  164.4171 C.ar    1  UNL1       -0.0034
@<TRIPOS>BOND
     1    18    19    1
     2    19    20   ar
     3    20    21   ar
     4    21    12    1
     5    12    13    1
     6    13    14    1
     7    14    15    1
     8    15     1    1
     9     1     2    1
    10     2     3    1
    11     3     4   ar
    12     4     5   ar
    13     5     6   ar
    14     6     7   ar
    15     7     8   ar
    16     8     9    1
    17     9    10    1
    18    10    11    1
    19    11    27    1
    20    27    28    1
    21    28    29   ar
    22    29    30   ar
    23    30    31   ar
    24    31    32    1
    25    31    33   ar
    26    33    34   ar
    27    15    16    1
    28    16    17    1
    29    21    22   ar
    30    22    23   ar
    31    23    19   ar
    32    17    12    1
    33    11     1    1
    34    34    28   ar
    35     8     3   ar
    36    18    24    1
    37    18    25    1
    38    23    26    1
@<TRIPOS>MOLECULE
*****
 34 38 0 0 0
SMALL
GASTEIGER

@<TRIPOS>ATOM
      1 N         141.8513  139.3237  161.9762 N.3     1  UNL1       -0.2678
      2 C         140.7933  138.9505  160.9805 C.3     1  UNL1        0.1038
      3 C         140.9505  138.6359  159.5223 C.ar    1  UNL1        0.0470
      4 C         139.6315  138.3101  158.8867 C.ar    1  UNL1        0.0989
      5 N         139.5666  137.9653  157.4283 N.ar    1  UNL1       -0.2424
      6 C         140.8207  137.9464  156.6056 C.ar    1  UNL1        0.1020
      7 C         142.1397  138.2722  157.2412 C.ar    1  UNL1        0.0573
      8 C         142.2046  138.6169  158.6996 C.ar    1  UNL1        0.1389
      9 O         143.6112  138.9078  159.1319 O.3     1  UNL1       -0.4742
     10 C         144.1112  139.2895  160.4936 C.3     1  UNL1        0.2215
     11 C         143.3279  139.4746  161.7595 C.3     1  UNL1        0.1061
     12 N         140.4044  140.0924  166.1673 N.pl3   1  UNL1       -0.2769
     13 C         140.1665  141.1119  165.0929 C.3     1  UNL1        0.0950
     14 C         140.6488  140.8556  163.6959 C.3     1  UNL1        0.0375
     15 C         141.3690  139.5799  163.3732 C.3     1  UNL1        0.0613
     16 C         141.6069  138.5605  164.4476 C.3     1  UNL1        0.0375
     17 C         141.1245  138.8168  165.8446 C.3     1  UNL1        0.0950
     18 N         139.7014  142.3018  170.9112 N.pl3   1  UNL1       -0.3278
     19 C         139.5989  141.3642  169.7448 C.ar    1  UNL1        0.2099
     20 N         140.3166  141.5044  168.4352 N.ar    1  UNL1       -0.1804
     21 C         139.9221  140.3486  167.5643 C.ar    1  UNL1        0.2395
     22 N         138.9605  139.4941  168.3357 N.ar    1  UNL1       -0.1349
     23 N         138.7608  140.1217  169.6834 N.ar    1  UNL1       -0.2453
     24 H         140.2816  143.0952  170.8555 H       1  UNL1        0.1451
     25 H         139.1885  142.1238  171.7324 H       1  UNL1        0.1451
     26 H         138.1813  139.7785  170.4015 H       1  UNL1        0.1919
     27 C         144.1269  139.8618  162.9685 C.3     1  UNL1        0.0461
     28 C         144.1293  141.2852  163.4416 C.ar    1  UNL1       -0.0207
     29 C         144.1772  142.4063  162.4462 C.ar    1  UNL1       -0.0034
     30 C         144.1796  143.8297  162.9193 C.ar    1  UNL1        0.0111
     31 C         144.1340  144.1320  164.3878 C.ar    1  UNL1        0.0577
     32 CL        144.1364  145.5555  164.8609 Cl      1  UNL1       -0.0822
     33 C         144.0861  143.0110  165.3832 C.ar    1  UNL1        0.0111
     34 C         144.0837  141.5875  164.9101 C.ar    1  UNL1       -0.0034
@<TRIPOS>BOND
     1    18    19    1
     2    19    20   ar
     3    20    21   ar
     4    21    12    1
     5    12    13    1
     6    13    14    1
     7    14    15    1
     8    15     1    1
     9     1     2    1
    10     2     3    1
    11     3     4   ar
    12     4     5   ar
    13     5     6   ar
    14     6     7   ar
    15     7     8   ar
    16     8     9    1
    17     9    10    1
    18    10    11    1
    19    11    27    1
    20    27    28    1
    21    28    29   ar
    22    29    30   ar
    23    30    31   ar
    24    31    32    1
    25    31    33   ar
    26    33    34   ar
    27    15    16    1
    28    16    17    1
    29    21    22   ar
    30    22    23   ar
    31    23    19   ar
    32    17    12    1
    33    11     1    1
    34    34    28   ar
    35     8     3   ar
    36    18    24    1
    37    18    25    1
    38    23    26    1
@<TRIPOS>MOLECULE
*****
 34 38 0 0 0
SMALL
GASTEIGER

@<TRIPOS>ATOM
      1 N         139.7395  143.3172  160.4779 N.3     1  UNL1       -0.2678
      2 C         139.0227  142.8445  159.2480 C.3     1  UNL1        0.1038
      3 C         139.0774  143.4079  157.8589 C.ar    1  UNL1        0.0470
      4 C         138.2033  142.6326  156.9183 C.ar    1  UNL1        0.0989
      5 N         138.1142  143.0326  155.4754 N.ar    1  UNL1       -0.2424
      6 C         138.8992  144.2080  154.9731 C.ar    1  UNL1        0.1020
      7 C         139.7733  144.9833  155.9137 C.ar    1  UNL1        0.0573
      8 C         139.8624  144.5833  157.3566 C.ar    1  UNL1        0.1389
      9 O         140.7866  145.4855  158.1195 O.3     1  UNL1       -0.4742
     10 C         141.1541  145.4352  159.5729 C.3     1  UNL1        0.2215
     11 C         140.6880  144.4702  160.6225 C.3     1  UNL1        0.1061
     12 N         138.9384  140.9656  164.2300 N.pl3   1  UNL1       -0.2769
     13 C         138.2733  142.2938  164.0209 C.3     1  UNL1        0.0950
     14 C         138.5403  143.0776  162.7701 C.3     1  UNL1        0.0375
     15 C         139.4725  142.5334  161.7286 C.3     1  UNL1        0.0613
     16 C         140.1377  141.2052  161.9377 C.3     1  UNL1        0.0375
     17 C         139.8706  140.4214  163.1885 C.3     1  UNL1        0.0950
     18 N         137.0061  137.3866  167.5971 N.pl3   1  UNL1       -0.3278
     19 C         137.7832  138.5367  167.0284 C.ar    1  UNL1        0.2099
     20 N         137.7422  139.0109  165.6060 N.ar    1  UNL1       -0.1804
     21 C         138.6714  140.1818  165.4807 C.ar    1  UNL1        0.2395
     22 N         139.2868  140.4312  166.8257 N.ar    1  UNL1       -0.1349
     23 N         138.7378  139.4144  167.7823 N.ar    1  UNL1       -0.2453
     24 H         136.4013  136.8675  167.0192 H       1  UNL1        0.1451
     25 H         137.1008  137.1509  168.5482 H       1  UNL1        0.1451
     26 H         138.9643  139.3368  168.7373 H       1  UNL1        0.1919
     27 C         141.2441  144.6869  161.9986 C.3     1  UNL1        0.0461
     28 C         142.4536  143.9218  162.4479 C.ar    1  UNL1       -0.0207
     29 C         143.3678  143.3009  161.4335 C.ar    1  UNL1       -0.0034
     30 C         144.5772  142.5359  161.8828 C.ar    1  UNL1        0.0111
     31 C         144.8725  142.3916  163.3463 C.ar    1  UNL1        0.0577
     32 CL        146.0820  141.6264  163.7955 Cl      1  UNL1       -0.0822
     33 C         143.9584  143.0124  164.3606 C.ar    1  UNL1        0.0111
     34 C         142.7489  143.7775  163.9114 C.ar    1  UNL1       -0.0034
@<TRIPOS>BOND
     1    18    19    1
     2    19    20   ar
     3    20    21   ar
     4    21    12    1
     5    12    13    1
     6    13    14    1
     7    14    15    1
     8    15     1    1
     9     1     2    1
    10     2     3    1
    11     3     4   ar
    12     4     5   ar
    13     5     6   ar
    14     6     7   ar
    15     7     8   ar
    16     8     9    1
    17     9    10    1
    18    10    11    1
    19    11    27    1
    20    27    28    1
    21    28    29   ar
    22    29    30   ar
    23    30    31   ar
    24    31    32    1
    25    31    33   ar
    26    33    34   ar
    27    15    16    1
    28    16    17    1
    29    21    22   ar
    30    22    23   ar
    31    23    19   ar
    32    17    12    1
    33    11     1    1
    34    34    28   ar
    35     8     3   ar
    36    18    24    1
    37    18    25    1
    38    23    26    1
@<TRIPOS>MOLECULE
*****
 34 38 0 0 0
SMALL
GASTEIGER

@<TRIPOS>ATOM
      1 N         142.6383  140.6549  162.0320 N.3     1  UNL1       -0.2678
      2 C         142.6613  139.4272  161.1705 C.3     1  UNL1        0.1038
      3 C         142.8280  139.3313  159.6829 C.ar    1  UNL1        0.0470
      4 C         142.7925  137.9056  159.2182 C.ar    1  UNL1        0.0989
      5 N         142.9420  137.5882  157.7598 N.ar    1  UNL1       -0.2424
      6 C         143.1270  138.6965  156.7662 C.ar    1  UNL1        0.1020
      7 C         143.1625  140.1222  157.2309 C.ar    1  UNL1        0.0573
      8 C         143.0131  140.4396  158.6892 C.ar    1  UNL1        0.1389
      9 O         143.0770  141.9175  158.9378 O.3     1  UNL1       -0.4742
     10 C         142.9717  142.6522  160.2414 C.3     1  UNL1        0.2215
     11 C         142.7764  142.0902  161.6184 C.3     1  UNL1        0.1061
     12 N         142.0813  139.9378  166.4394 N.pl3   1  UNL1       -0.2769
     13 C         143.4335  140.3058  165.9044 C.3     1  UNL1        0.0950
     14 C         143.6191  140.5448  164.4352 C.3     1  UNL1        0.0375
     15 C         142.4526  140.4159  163.5010 C.3     1  UNL1        0.0613
     16 C         141.1004  140.0479  164.0360 C.3     1  UNL1        0.0375
     17 C         140.9148  139.8089  165.5052 C.3     1  UNL1        0.0950
     18 N         139.9321  139.7020  171.2566 N.pl3   1  UNL1       -0.3278
     19 C         140.9077  139.5904  170.1227 C.ar    1  UNL1        0.2099
     20 N         140.6504  139.9781  168.6968 N.ar    1  UNL1       -0.1804
     21 C         141.8956  139.6988  167.9084 C.ar    1  UNL1        0.2395
     22 N         142.9226  139.1385  168.8473 N.ar    1  UNL1       -0.1349
     23 N         142.3120  139.0715  170.2158 N.ar    1  UNL1       -0.2453
     24 H         139.0282  140.0571  171.0951 H       1  UNL1        0.1451
     25 H         140.1956  139.4202  172.1623 H       1  UNL1        0.1451
     26 H         142.7552  138.7444  171.0318 H       1  UNL1        0.1919
     27 C         142.7107  143.0966  162.7287 C.3     1  UNL1        0.0461
     28 C         141.3852  143.4758  163.3197 C.ar    1  UNL1       -0.0207
     29 C         141.2187  143.5391  164.8091 C.ar    1  UNL1       -0.0034
     30 C         139.8932  143.9183  165.4002 C.ar    1  UNL1        0.0111
     31 C         138.7342  144.2342  164.5018 C.ar    1  UNL1        0.0577
     32 CL        137.4087  144.6133  165.0929 Cl      1  UNL1       -0.0822
     33 C         138.9007  144.1708  163.0125 C.ar    1  UNL1        0.0111
     34 C         140.2262  143.7917  162.4214 C.ar    1  UNL1       -0.0034
@<TRIPOS>BOND
     1    18    19    1
     2    19    20   ar
     3    20    21   ar
     4    21    12    1
     5    12    13    1
     6    13    14    1
     7    14    15    1
     8    15     1    1
     9     1     2    1
    10     2     3    1
    11     3     4   ar
    12     4     5   ar
    13     5     6   ar
    14     6     7   ar
    15     7     8   ar
    16     8     9    1
    17     9    10    1
    18    10    11    1
    19    11    27    1
    20    27    28    1
    21    28    29   ar
    22    29    30   ar
    23    30    31   ar
    24    31    32    1
    25    31    33   ar
    26    33    34   ar
    27    15    16    1
    28    16    17    1
    29    21    22   ar
    30    22    23   ar
    31    23    19   ar
    32    17    12    1
    33    11     1    1
    34    34    28   ar
    35     8     3   ar
    36    18    24    1
    37    18    25    1
    38    23    26    1
@<TRIPOS>MOLECULE
*****
 34 38 0 0 0
SMALL
GASTEIGER

@<TRIPOS>ATOM
      1 N         139.8416  139.1883  161.2152 N.3     1  UNL1       -0.2678
      2 C         138.7652  139.7952  160.3649 C.3     1  UNL1        0.1038
      3 C         138.6436  139.7966  158.8698 C.ar    1  UNL1        0.0470
      4 C         137.4078  140.5187  158.4212 C.ar    1  UNL1        0.0989
      5 N         137.0969  140.6355  156.9584 N.ar    1  UNL1       -0.2424
      6 C         138.0218  140.0304  155.9444 C.ar    1  UNL1        0.1020
      7 C         139.2576  139.3083  156.3930 C.ar    1  UNL1        0.0573
      8 C         139.5685  139.1914  157.8558 C.ar    1  UNL1        0.1389
      9 O         140.8434  138.4354  158.0864 O.3     1  UNL1       -0.4742
     10 C         141.5083  138.0978  159.3879 C.3     1  UNL1        0.2215
     11 C         141.0624  138.4329  160.7804 C.3     1  UNL1        0.1061
     12 N         139.3426  139.7018  165.6579 N.pl3   1  UNL1       -0.2769
     13 C         138.9790  138.3997  165.0078 C.3     1  UNL1        0.0950
     14 C         139.1454  138.2286  163.5269 C.3     1  UNL1        0.0375
     15 C         139.6753  139.3595  162.6961 C.3     1  UNL1        0.0613
     16 C         140.0389  140.6616  163.3461 C.3     1  UNL1        0.0375
     17 C         139.8725  140.8327  164.8270 C.3     1  UNL1        0.0950
     18 N         139.9862  141.3800  170.6227 N.pl3   1  UNL1       -0.3278
     19 C         139.4721  140.6443  169.4208 C.ar    1  UNL1        0.2099
     20 N         139.9713  140.7955  168.0145 N.ar    1  UNL1       -0.1804
     21 C         139.1763  139.8729  167.1387 C.ar    1  UNL1        0.2395
     22 N         138.1858  139.1516  168.0039 N.ar    1  UNL1       -0.1349
     23 N         138.3686  139.6283  169.4144 N.ar    1  UNL1       -0.2453
     24 H         140.7179  142.0314  170.5254 H       1  UNL1        0.1451
     25 H         139.5919  141.2114  171.5089 H       1  UNL1        0.1451
     26 H         137.8546  139.3273  170.1982 H       1  UNL1        0.1919
     27 C         141.9554  137.9486  161.8840 C.3     1  UNL1        0.0461
     28 C         142.9944  138.8621  162.4636 C.ar    1  UNL1       -0.0207
     29 C         143.6489  139.8981  161.5985 C.ar    1  UNL1       -0.0034
     30 C         144.6878  140.8117  162.1782 C.ar    1  UNL1        0.0111
     31 C         145.0723  140.6892  163.6229 C.ar    1  UNL1        0.0577
     32 CL        146.1113  141.6028  164.2025 Cl      1  UNL1       -0.0822
     33 C         144.4179  139.6532  164.4879 C.ar    1  UNL1        0.0111
     34 C         143.3789  138.7396  163.9083 C.ar    1  UNL1       -0.0034
@<TRIPOS>BOND
     1    18    19    1
     2    19    20   ar
     3    20    21   ar
     4    21    12    1
     5    12    13    1
     6    13    14    1
     7    14    15    1
     8    15     1    1
     9     1     2    1
    10     2     3    1
    11     3     4   ar
    12     4     5   ar
    13     5     6   ar
    14     6     7   ar
    15     7     8   ar
    16     8     9    1
    17     9    10    1
    18    10    11    1
    19    11    27    1
    20    27    28    1
    21    28    29   ar
    22    29    30   ar
    23    30    31   ar
    24    31    32    1
    25    31    33   ar
    26    33    34   ar
    27    15    16    1
    28    16    17    1
    29    21    22   ar
    30    22    23   ar
    31    23    19   ar
    32    17    12    1
    33    11     1    1
    34    34    28   ar
    35     8     3   ar
    36    18    24    1
    37    18    25    1
    38    23    26    1
@<TRIPOS>MOLECULE
*****
 34 38 0 0 0
SMALL
GASTEIGER

@<TRIPOS>ATOM
      1 N         140.8482  140.0840  164.9228 N.3     1  UNL1       -0.2678
      2 C         141.1789  141.0925  165.9828 C.3     1  UNL1        0.1038
      3 C         140.6314  141.1998  167.3752 C.ar    1  UNL1        0.0470
      4 C         141.2316  142.3601  168.1123 C.ar    1  UNL1        0.0989
      5 N         140.8183  142.6456  169.5256 N.ar    1  UNL1       -0.2424
      6 C         139.8047  141.7708  170.2019 C.ar    1  UNL1        0.1020
      7 C         139.2045  140.6105  169.4649 C.ar    1  UNL1        0.0573
      8 C         139.6178  140.3250  168.0515 C.ar    1  UNL1        0.1389
      9 O         138.9014  139.1269  167.5024 O.3     1  UNL1       -0.4742
     10 C         139.0217  138.5076  166.1415 C.3     1  UNL1        0.2215
     11 C         139.8881  138.9337  164.9935 C.3     1  UNL1        0.1061
     12 N         143.0236  140.5744  161.0143 N.pl3   1  UNL1       -0.2769
     13 C         141.9201  141.5215  161.3825 C.3     1  UNL1        0.0950
     14 C         141.1950  141.3580  162.6853 C.3     1  UNL1        0.0375
     15 C         141.5733  140.2475  163.6200 C.3     1  UNL1        0.0613
     16 C         142.6768  139.3004  163.2519 C.3     1  UNL1        0.0375
     17 C         143.4019  139.4639  161.9490 C.3     1  UNL1        0.0950
     18 N         145.6617  142.7085  156.9688 N.pl3   1  UNL1       -0.3278
     19 C         144.9613  141.7188  157.8520 C.ar    1  UNL1        0.2099
     20 N         144.3315  142.0141  159.1808 N.ar    1  UNL1       -0.1804
     21 C         143.7487  140.7379  159.7115 C.ar    1  UNL1        0.2395
     22 N         144.0184  139.6538  158.7105 N.ar    1  UNL1       -0.1349
     23 N         144.7679  140.2600  157.5612 N.ar    1  UNL1       -0.2453
     24 H         145.7382  143.6495  157.2479 H       1  UNL1        0.1451
     25 H         146.0449  142.4171  156.1100 H       1  UNL1        0.1451
     26 H         145.0783  139.7841  156.7572 H       1  UNL1        0.1919
     27 C         139.7801  138.0989  163.7519 C.3     1  UNL1        0.0461
     28 C         139.2086  138.6906  162.4977 C.ar    1  UNL1       -0.0207
     29 C         138.0806  139.6760  162.5797 C.ar    1  UNL1       -0.0034
     30 C         137.5090  140.2677  161.3254 C.ar    1  UNL1        0.0111
     31 C         138.0653  139.8740  159.9892 C.ar    1  UNL1        0.0577
     32 CL        137.4937  140.4657  158.7349 Cl      1  UNL1       -0.0822
     33 C         139.1932  138.8886  159.9072 C.ar    1  UNL1        0.0111
     34 C         139.7649  138.2968  161.1615 C.ar    1  UNL1       -0.0034
@<TRIPOS>BOND
     1    18    19    1
     2    19    20   ar
     3    20    21   ar
     4    21    12    1
     5    12    13    1
     6    13    14    1
     7    14    15    1
     8    15     1    1
     9     1     2    1
    10     2     3    1
    11     3     4   ar
    12     4     5   ar
    13     5     6   ar
    14     6     7   ar
    15     7     8   ar
    16     8     9    1
    17     9    10    1
    18    10    11    1
    19    11    27    1
    20    27    28    1
    21    28    29   ar
    22    29    30   ar
    23    30    31   ar
    24    31    32    1
    25    31    33   ar
    26    33    34   ar
    27    15    16    1
    28    16    17    1
    29    21    22   ar
    30    22    23   ar
    31    23    19   ar
    32    17    12    1
    33    11     1    1
    34    34    28   ar
    35     8     3   ar
    36    18    24    1
    37    18    25    1
    38    23    26    1
@<TRIPOS>MOLECULE
*****
 34 38 0 0 0
SMALL
GASTEIGER

@<TRIPOS>ATOM
      1 N         140.6731  139.4756  165.8392 N.3     1  UNL1       -0.2678
      2 C         141.7044  139.8772  166.8516 C.3     1  UNL1        0.1038
      3 C         141.5289  140.1138  168.3224 C.ar    1  UNL1        0.0470
      4 C         142.8231  140.5028  168.9732 C.ar    1  UNL1        0.0989
      5 N         142.8670  140.7852  170.4457 N.ar    1  UNL1       -0.2424
      6 C         141.6167  140.6784  171.2674 C.ar    1  UNL1        0.1020
      7 C         140.3224  140.2894  170.6166 C.ar    1  UNL1        0.0573
      8 C         140.2786  140.0070  169.1441 C.ar    1  UNL1        0.1389
      9 O         138.8950  139.6374  168.6980 O.3     1  UNL1       -0.4742
     10 C         138.4199  139.2832  167.3200 C.3     1  UNL1        0.2215
     11 C         139.2113  139.2112  166.0477 C.3     1  UNL1        0.1061
     12 N         142.1607  139.0008  161.6189 N.pl3   1  UNL1       -0.2769
     13 C         142.0163  140.3703  162.2136 C.3     1  UNL1        0.0950
     14 C         141.5204  140.5285  163.6205 C.3     1  UNL1        0.0375
     15 C         141.1689  139.3173  164.4325 C.3     1  UNL1        0.0613
     16 C         141.3133  137.9478  163.8377 C.3     1  UNL1        0.0375
     17 C         141.8092  137.7896  162.4309 C.3     1  UNL1        0.0950
     18 N         142.8879  137.1444  156.7296 N.pl3   1  UNL1       -0.3278
     19 C         142.9908  137.9893  157.9648 C.ar    1  UNL1        0.2099
     20 N         142.2543  137.7629  159.2516 N.ar    1  UNL1       -0.1804
     21 C         142.6565  138.8426  160.2121 C.ar    1  UNL1        0.2395
     22 N         143.6418  139.7362  159.5188 N.ar    1  UNL1       -0.1349
     23 N         143.8484  139.2089  158.1298 N.ar    1  UNL1       -0.2453
     24 H         142.2942  136.3592  156.7183 H       1  UNL1        0.1451
     25 H         143.4142  137.3751  155.9302 H       1  UNL1        0.1451
     26 H         144.4425  139.5953  157.4465 H       1  UNL1        0.1919
     27 C         138.4387  138.8236  164.8218 C.3     1  UNL1        0.0461
     28 C         138.2968  139.7938  163.6867 C.ar    1  UNL1       -0.0207
     29 C         138.1410  141.2591  163.9676 C.ar    1  UNL1       -0.0034
     30 C         137.9991  142.2294  162.8326 C.ar    1  UNL1        0.0111
     31 C         138.0129  141.7345  161.4166 C.ar    1  UNL1        0.0577
     32 CL        137.8710  142.7048  160.2815 Cl      1  UNL1       -0.0822
     33 C         138.1687  140.2693  161.1357 C.ar    1  UNL1        0.0111
     34 C         138.3107  139.2989  162.2708 C.ar    1  UNL1       -0.0034
@<TRIPOS>BOND
     1    18    19    1
     2    19    20   ar
     3    20    21   ar
     4    21    12    1
     5    12    13    1
     6    13    14    1
     7    14    15    1
     8    15     1    1
     9     1     2    1
    10     2     3    1
    11     3     4   ar
    12     4     5   ar
    13     5     6   ar
    14     6     7   ar
    15     7     8   ar
    16     8     9    1
    17     9    10    1
    18    10    11    1
    19    11    27    1
    20    27    28    1
    21    28    29   ar
    22    29    30   ar
    23    30    31   ar
    24    31    32    1
    25    31    33   ar
    26    33    34   ar
    27    15    16    1
    28    16    17    1
    29    21    22   ar
    30    22    23   ar
    31    23    19   ar
    32    17    12    1
    33    11     1    1
    34    34    28   ar
    35     8     3   ar
    36    18    24    1
    37    18    25    1
    38    23    26    1
@<TRIPOS>MOLECULE
*****
 34 38 0 0 0
SMALL
GASTEIGER

@<TRIPOS>ATOM
      1 N         141.1819  139.7900  164.4635 N.3     1  UNL1       -0.2678
      2 C         142.0743  139.2553  165.5441 C.3     1  UNL1        0.1038
      3 C         141.9179  139.3754  167.0311 C.ar    1  UNL1        0.0470
      4 C         143.0394  138.6934  167.7570 C.ar    1  UNL1        0.0989
      5 N         143.0734  138.6959  169.2566 N.ar    1  UNL1       -0.2424
      6 C         141.9858  139.3804  170.0303 C.ar    1  UNL1        0.1020
      7 C         140.8643  140.0624  169.3044 C.ar    1  UNL1        0.0573
      8 C         140.8303  140.0599  167.8048 C.ar    1  UNL1        0.1389
      9 O         139.6306  140.7934  167.2826 O.3     1  UNL1       -0.4742
     10 C         139.2221  141.0235  165.8578 C.3     1  UNL1        0.2215
     11 C         139.9125  140.5770  164.6032 C.3     1  UNL1        0.1061
     12 N         142.4848  138.9183  160.2455 N.pl3   1  UNL1       -0.2769
     13 C         143.2212  139.9385  161.0622 C.3     1  UNL1        0.0950
     14 C         142.7868  140.2291  162.4683 C.3     1  UNL1        0.0375
     15 C         141.6162  139.4995  163.0576 C.3     1  UNL1        0.0613
     16 C         140.8798  138.4792  162.2408 C.3     1  UNL1        0.0375
     17 C         141.3142  138.1887  160.8348 C.3     1  UNL1        0.0950
     18 N         143.1333  136.5271  155.5826 N.pl3   1  UNL1       -0.3278
     19 C         143.2172  137.5286  156.6962 C.ar    1  UNL1        0.2099
     20 N         142.5753  137.4021  158.0459 N.ar    1  UNL1       -0.1804
     21 C         142.9191  138.6277  158.8395 C.ar    1  UNL1        0.2395
     22 N         143.7735  139.5117  157.9801 N.ar    1  UNL1       -0.1349
     23 N         143.9578  138.8324  156.6554 N.ar    1  UNL1       -0.2453
     24 H         142.6201  135.6960  155.7057 H       1  UNL1        0.1451
     25 H         143.5914  136.7010  154.7287 H       1  UNL1        0.1451
     26 H         144.4741  139.1811  155.8931 H       1  UNL1        0.1919
     27 C         139.2453  140.9693  163.3183 C.3     1  UNL1        0.0461
     28 C         139.3100  142.3905  162.8431 C.ar    1  UNL1       -0.0207
     29 C         140.3378  142.7962  161.8286 C.ar    1  UNL1       -0.0034
     30 C         140.4024  144.2174  161.3534 C.ar    1  UNL1        0.0111
     31 C         139.4393  145.2331  161.8926 C.ar    1  UNL1        0.0577
     32 CL        139.5039  146.6544  161.4174 Cl      1  UNL1       -0.0822
     33 C         138.4115  144.8275  162.9071 C.ar    1  UNL1        0.0111
     34 C         138.3468  143.4062  163.3823 C.ar    1  UNL1       -0.0034
@<TRIPOS>BOND
     1    18    19    1
     2    19    20   ar
     3    20    21   ar
     4    21    12    1
     5    12    13    1
     6    13    14    1
     7    14    15    1
     8    15     1    1
     9     1     2    1
    10     2     3    1
    11     3     4   ar
    12     4     5   ar
    13     5     6   ar
    14     6     7   ar
    15     7     8   ar
    16     8     9    1
    17     9    10    1
    18    10    11    1
    19    11    27    1
    20    27    28    1
    21    28    29   ar
    22    29    30   ar
    23    30    31   ar
    24    31    32    1
    25    31    33   ar
    26    33    34   ar
    27    15    16    1
    28    16    17    1
    29    21    22   ar
    30    22    23   ar
    31    23    19   ar
    32    17    12    1
    33    11     1    1
    34    34    28   ar
    35     8     3   ar
    36    18    24    1
    37    18    25    1
    38    23    26    1
