@<TRIPOS>MOLECULE
*****
 20 21 0 0 0
SMALL
GASTEIGER

@<TRIPOS>ATOM
      1 C         138.0944  143.1111  162.5342 C.3     1  UNL1        0.1425
      2 C         137.8234  144.2982  163.4102 C.3     1  UNL1        0.0367
      3 C         138.6210  144.5029  164.6639 C.3     1  UNL1        0.0289
      4 CL        144.4726  143.1790  164.7464 Cl      1  UNL1       -0.0822
      5 C         143.0097  143.5100  164.7258 C.ar    1  UNL1        0.0577
      6 C         142.0491  142.7151  165.5597 C.ar    1  UNL1        0.0111
      7 C         140.5862  143.0461  165.5390 C.ar    1  UNL1       -0.0034
      8 C         140.0839  144.1719  164.6845 C.ar    1  UNL1       -0.0221
      9 C         141.0445  144.9667  163.8506 C.ar    1  UNL1       -0.0034
     10 C         142.5074  144.6358  163.8712 C.ar    1  UNL1        0.0111
     11 O         137.2189  141.8965  162.6250 O.3     1  UNL1       -0.3537
     12 C         137.7194  140.6611  163.3132 C.3     1  UNL1        0.1436
     13 C         138.0206  140.6908  164.7823 C.3     1  UNL1        0.0494
     14 C         138.5346  139.4594  165.4675 C.3     1  UNL1        0.0747
     15 N         139.8268  139.5082  166.2277 N.3     1  UNL1       -0.2726
     16 C         141.0966  139.0429  165.5790 C.3     1  UNL1        0.0721
     17 C         142.3888  139.0917  166.3392 C.3     1  UNL1        0.0174
     18 C         142.4111  139.6059  167.7482 C.3     1  UNL1        0.0029
     19 C         141.1412  140.0713  168.3969 C.3     1  UNL1        0.0174
     20 C         139.8491  140.0224  167.6367 C.3     1  UNL1        0.0721
@<TRIPOS>BOND
     1     4     5    1
     2     5     6   ar
     3     6     7   ar
     4     7     8   ar
     5     8     3    1
     6     3     2    1
     7     2     1    1
     8     1    11    1
     9    11    12    1
    10    12    13    1
    11    13    14    1
    12    14    15    1
    13    15    16    1
    14    16    17    1
    15    17    18    1
    16    18    19    1
    17    19    20    1
    18     8     9   ar
    19     9    10   ar
    20    10     5   ar
    21    20    15    1
@<TRIPOS>MOLECULE
*****
 20 21 0 0 0
SMALL
GASTEIGER

@<TRIPOS>ATOM
      1 C         139.0168  144.6570  164.9270 C.3     1  UNL1        0.1425
      2 C         140.1246  143.6577  165.0824 C.3     1  UNL1        0.0367
      3 C         140.2849  142.9102  166.3729 C.3     1  UNL1        0.0289
      4 CL        143.7359  138.0069  166.5913 Cl      1  UNL1       -0.0822
      5 C         142.8731  139.2327  166.5367 C.ar    1  UNL1        0.0577
      6 C         142.7341  139.9954  165.2526 C.ar    1  UNL1        0.0111
      7 C         141.8713  141.2212  165.1980 C.ar    1  UNL1       -0.0034
      8 C         141.1476  141.6844  166.4275 C.ar    1  UNL1       -0.0221
      9 C         141.2867  140.9217  167.7116 C.ar    1  UNL1       -0.0034
     10 C         142.1494  139.6959  167.7662 C.ar    1  UNL1        0.0111
     11 O         137.8760  144.3732  163.9952 O.3     1  UNL1       -0.3537
     12 C         138.1416  143.7803  162.6432 C.3     1  UNL1        0.1436
     13 C         137.8894  142.3216  162.4013 C.3     1  UNL1        0.0494
     14 C         137.3503  141.4605  163.5048 C.3     1  UNL1        0.0747
     15 N         138.1353  140.2749  163.9826 N.3     1  UNL1       -0.2726
     16 C         138.1000  139.8863  165.4309 C.3     1  UNL1        0.0721
     17 C         138.8850  138.7007  165.9086 C.3     1  UNL1        0.0174
     18 C         139.7053  137.9039  164.9381 C.3     1  UNL1        0.0029
     19 C         139.7407  138.2925  163.4898 C.3     1  UNL1        0.0174
     20 C         138.9557  139.4781  163.0120 C.3     1  UNL1        0.0721
@<TRIPOS>BOND
     1     4     5    1
     2     5     6   ar
     3     6     7   ar
     4     7     8   ar
     5     8     3    1
     6     3     2    1
     7     2     1    1
     8     1    11    1
     9    11    12    1
    10    12    13    1
    11    13    14    1
    12    14    15    1
    13    15    16    1
    14    16    17    1
    15    17    18    1
    16    18    19    1
    17    19    20    1
    18     8     9   ar
    19     9    10   ar
    20    10     5   ar
    21    20    15    1
@<TRIPOS>MOLECULE
*****
 20 21 0 0 0
SMALL
GASTEIGER

@<TRIPOS>ATOM
      1 C         143.9581  143.2951  165.0107 C.3     1  UNL1        0.1425
      2 C         142.8767  142.4813  165.6574 C.3     1  UNL1        0.0367
      3 C         141.5340  142.3604  164.9998 C.3     1  UNL1        0.0289
      4 CL        137.5389  138.3787  167.0455 Cl      1  UNL1       -0.0822
      5 C         138.5377  139.3741  166.5341 C.ar    1  UNL1        0.0577
      6 C         138.4210  139.9026  165.1351 C.ar    1  UNL1        0.0111
      7 C         139.4198  140.8981  164.6237 C.ar    1  UNL1       -0.0034
      8 C         140.5353  141.3650  165.5112 C.ar    1  UNL1       -0.0221
      9 C         140.6520  140.8365  166.9101 C.ar    1  UNL1       -0.0034
     10 C         139.6532  139.8410  167.4215 C.ar    1  UNL1        0.0111
     11 O         145.1864  142.6203  164.4759 O.3     1  UNL1       -0.3537
     12 C         145.2033  142.0985  163.0697 C.3     1  UNL1        0.1436
     13 C         144.8269  140.6729  162.7942 C.3     1  UNL1        0.0494
     14 C         143.4330  140.3370  162.3535 C.3     1  UNL1        0.0747
     15 N         142.6375  139.3081  163.1010 N.3     1  UNL1       -0.2726
     16 C         143.0140  138.9449  164.5068 C.3     1  UNL1        0.0721
     17 C         142.2185  137.9161  165.2542 C.3     1  UNL1        0.0174
     18 C         141.0466  137.2504  164.5958 C.3     1  UNL1        0.0029
     19 C         140.6701  137.6136  163.1900 C.3     1  UNL1        0.0174
     20 C         141.4656  138.6424  162.4426 C.3     1  UNL1        0.0721
@<TRIPOS>BOND
     1     4     5    1
     2     5     6   ar
     3     6     7   ar
     4     7     8   ar
     5     8     3    1
     6     3     2    1
     7     2     1    1
     8     1    11    1
     9    11    12    1
    10    12    13    1
    11    13    14    1
    12    14    15    1
    13    15    16    1
    14    16    17    1
    15    17    18    1
    16    18    19    1
    17    19    20    1
    18     8     9   ar
    19     9    10   ar
    20    10     5   ar
    21    20    15    1
@<TRIPOS>MOLECULE
*****
 20 21 0 0 0
SMALL
GASTEIGER

@<TRIPOS>ATOM
      1 C         141.0515  144.8148  163.9195 C.3     1  UNL1        0.1425
      2 C         140.0186  144.0424  164.6855 C.3     1  UNL1        0.0367
      3 C         140.4333  143.1667  165.8304 C.3     1  UNL1        0.0289
      4 CL        137.7470  137.8696  166.6821 Cl      1  UNL1       -0.0822
      5 C         138.4186  139.1939  166.4692 C.ar    1  UNL1        0.0577
      6 C         138.1292  139.9913  165.2321 C.ar    1  UNL1        0.0111
      7 C         138.8008  141.3156  165.0192 C.ar    1  UNL1       -0.0034
      8 C         139.7617  141.8424  166.0433 C.ar    1  UNL1       -0.0221
      9 C         140.0511  141.0450  167.2804 C.ar    1  UNL1       -0.0034
     10 C         139.3796  139.7208  167.4933 C.ar    1  UNL1        0.0111
     11 O         142.4955  144.4160  163.9960 O.3     1  UNL1       -0.3537
     12 C         143.0757  143.4973  162.9620 C.3     1  UNL1        0.1436
     13 C         143.0236  142.0119  163.1645 C.3     1  UNL1        0.0494
     14 C         141.8189  141.2363  162.7209 C.3     1  UNL1        0.0747
     15 N         141.5289  139.8927  163.3216 N.3     1  UNL1       -0.2726
     16 C         140.5857  138.9511  162.6333 C.3     1  UNL1        0.0721
     17 C         140.2958  137.6076  163.2341 C.3     1  UNL1        0.0174
     18 C         140.9492  137.2057  164.5231 C.3     1  UNL1        0.0029
     19 C         141.8924  138.1472  165.2114 C.3     1  UNL1        0.0174
     20 C         142.1823  139.4907  164.6106 C.3     1  UNL1        0.0721
@<TRIPOS>BOND
     1     4     5    1
     2     5     6   ar
     3     6     7   ar
     4     7     8   ar
     5     8     3    1
     6     3     2    1
     7     2     1    1
     8     1    11    1
     9    11    12    1
    10    12    13    1
    11    13    14    1
    12    14    15    1
    13    15    16    1
    14    16    17    1
    15    17    18    1
    16    18    19    1
    17    19    20    1
    18     8     9   ar
    19     9    10   ar
    20    10     5   ar
    21    20    15    1
@<TRIPOS>MOLECULE
*****
 20 21 0 0 0
SMALL
GASTEIGER

@<TRIPOS>ATOM
      1 C         138.1299  144.4379  163.1106 C.3     1  UNL1        0.1425
      2 C         138.0757  143.9489  164.5277 C.3     1  UNL1        0.0367
      3 C         139.2517  144.1513  165.4364 C.3     1  UNL1        0.0289
      4 CL        142.8242  139.5262  166.7949 Cl      1  UNL1       -0.0822
      5 C         141.9311  140.6825  166.4553 C.ar    1  UNL1        0.0577
      6 C         141.3941  141.5610  167.5460 C.ar    1  UNL1        0.0111
      7 C         140.5010  142.7173  167.2064 C.ar    1  UNL1       -0.0034
      8 C         140.1449  142.9950  165.7760 C.ar    1  UNL1       -0.0221
      9 C         140.6818  142.1165  164.6853 C.ar    1  UNL1       -0.0034
     10 C         141.5749  140.9602  165.0250 C.ar    1  UNL1        0.0111
     11 O         137.7140  143.5333  161.9886 O.3     1  UNL1       -0.3537
     12 C         138.2982  142.1560  161.8799 C.3     1  UNL1        0.1436
     13 C         137.5488  140.9781  162.4284 C.3     1  UNL1        0.0494
     14 C         137.9397  139.5870  162.0260 C.3     1  UNL1        0.0747
     15 N         138.9211  138.8139  162.8563 N.3     1  UNL1       -0.2726
     16 C         140.1258  138.1953  162.2114 C.3     1  UNL1        0.0721
     17 C         141.1071  137.4223  163.0416 C.3     1  UNL1        0.0174
     18 C         140.8836  137.2677  164.5168 C.3     1  UNL1        0.0029
     19 C         139.6789  137.8862  165.1617 C.3     1  UNL1        0.0174
     20 C         138.6976  138.6593  164.3315 C.3     1  UNL1        0.0721
@<TRIPOS>BOND
     1     4     5    1
     2     5     6   ar
     3     6     7   ar
     4     7     8   ar
     5     8     3    1
     6     3     2    1
     7     2     1    1
     8     1    11    1
     9    11    12    1
    10    12    13    1
    11    13    14    1
    12    14    15    1
    13    15    16    1
    14    16    17    1
    15    17    18    1
    16    18    19    1
    17    19    20    1
    18     8     9   ar
    19     9    10   ar
    20    10     5   ar
    21    20    15    1
@<TRIPOS>MOLECULE
*****
 20 21 0 0 0
SMALL
GASTEIGER

@<TRIPOS>ATOM
      1 C         138.5479  137.9365  165.7135 C.3     1  UNL1        0.1425
      2 C         138.4762  139.1010  166.6563 C.3     1  UNL1        0.0367
      3 C         139.2063  140.3715  166.3359 C.3     1  UNL1        0.0289
      4 CL        143.8139  142.1275  169.7544 Cl      1  UNL1       -0.0822
      5 C         142.6620  141.6885  168.8998 C.ar    1  UNL1        0.0577
      6 C         142.5984  140.2779  168.3937 C.ar    1  UNL1        0.0111
      7 C         141.4465  139.8389  167.5391 C.ar    1  UNL1       -0.0034
      8 C         140.3582  140.8105  167.1905 C.ar    1  UNL1       -0.0221
      9 C         140.4218  142.2211  167.6966 C.ar    1  UNL1       -0.0034
     10 C         141.5737  142.6601  168.5512 C.ar    1  UNL1        0.0111
     11 O         138.9227  138.1560  164.2776 O.3     1  UNL1       -0.3537
     12 C         140.1749  137.5406  163.7269 C.3     1  UNL1        0.1436
     13 C         141.5096  137.9166  164.2987 C.3     1  UNL1        0.0494
     14 C         142.3987  138.8737  163.5615 C.3     1  UNL1        0.0747
     15 N         142.5336  140.2900  164.0368 N.3     1  UNL1       -0.2726
     16 C         143.7188  140.6943  164.8626 C.3     1  UNL1        0.0721
     17 C         143.8536  142.1106  165.3379 C.3     1  UNL1        0.0174
     18 C         142.8033  143.1226  164.9875 C.3     1  UNL1        0.0029
     19 C         141.6181  142.7182  164.1617 C.3     1  UNL1        0.0174
     20 C         141.4833  141.3020  163.6864 C.3     1  UNL1        0.0721
@<TRIPOS>BOND
     1     4     5    1
     2     5     6   ar
     3     6     7   ar
     4     7     8   ar
     5     8     3    1
     6     3     2    1
     7     2     1    1
     8     1    11    1
     9    11    12    1
    10    12    13    1
    11    13    14    1
    12    14    15    1
    13    15    16    1
    14    16    17    1
    15    17    18    1
    16    18    19    1
    17    19    20    1
    18     8     9   ar
    19     9    10   ar
    20    10     5   ar
    21    20    15    1
@<TRIPOS>MOLECULE
*****
 20 21 0 0 0
SMALL
GASTEIGER

@<TRIPOS>ATOM
      1 C         137.7591  140.1809  161.6553 C.3     1  UNL1        0.1425
      2 C         137.5694  141.1003  162.8253 C.3     1  UNL1        0.0367
      3 C         138.7630  141.6690  163.5336 C.3     1  UNL1        0.0289
      4 CL        140.0302  139.9420  169.1382 Cl      1  UNL1       -0.0822
      5 C         139.7134  140.3738  167.7370 C.ar    1  UNL1        0.0577
      6 C         138.9338  139.4674  166.8311 C.ar    1  UNL1        0.0111
      7 C         138.6170  139.8992  165.4300 C.ar    1  UNL1       -0.0034
      8 C         139.0798  141.2372  164.9347 C.ar    1  UNL1       -0.0221
      9 C         139.8594  142.1436  165.8406 C.ar    1  UNL1       -0.0034
     10 C         140.1762  141.7119  167.2418 C.ar    1  UNL1        0.0111
     11 O         137.4953  138.7119  161.8053 O.3     1  UNL1       -0.3537
     12 C         138.5766  137.8036  162.3112 C.3     1  UNL1        0.1436
     13 C         140.0173  138.1829  162.1368 C.3     1  UNL1        0.0494
     14 C         141.0442  137.6990  163.1172 C.3     1  UNL1        0.0747
     15 N         141.8062  138.6844  163.9530 N.3     1  UNL1       -0.2726
     16 C         142.1593  138.3497  165.3718 C.3     1  UNL1        0.0721
     17 C         142.9213  139.3351  166.2075 C.3     1  UNL1        0.0174
     18 C         143.3301  140.6552  165.6243 C.3     1  UNL1        0.0029
     19 C         142.9769  140.9900  164.2054 C.3     1  UNL1        0.0174
     20 C         142.2150  140.0046  163.3698 C.3     1  UNL1        0.0721
@<TRIPOS>BOND
     1     4     5    1
     2     5     6   ar
     3     6     7   ar
     4     7     8   ar
     5     8     3    1
     6     3     2    1
     7     2     1    1
     8     1    11    1
     9    11    12    1
    10    12    13    1
    11    13    14    1
    12    14    15    1
    13    15    16    1
    14    16    17    1
    15    17    18    1
    16    18    19    1
    17    19    20    1
    18     8     9   ar
    19     9    10   ar
    20    10     5   ar
    21    20    15    1
@<TRIPOS>MOLECULE
*****
 20 21 0 0 0
SMALL
GASTEIGER

@<TRIPOS>ATOM
      1 C         139.1686  144.6672  163.8488 C.3     1  UNL1        0.1425
      2 C         139.5238  144.2250  165.2374 C.3     1  UNL1        0.0367
      3 C         140.3015  142.9593  165.4455 C.3     1  UNL1        0.0289
      4 CL        139.8689  139.9930  170.6430 Cl      1  UNL1       -0.0822
      5 C         139.9770  140.7346  169.3436 C.ar    1  UNL1        0.0577
      6 C         140.4579  142.1553  169.3287 C.ar    1  UNL1        0.0111
      7 C         140.5661  142.8969  168.0293 C.ar    1  UNL1       -0.0034
      8 C         140.1933  142.2178  166.7449 C.ar    1  UNL1       -0.0221
      9 C         139.7124  140.7971  166.7599 C.ar    1  UNL1       -0.0034
     10 C         139.6043  140.0555  168.0592 C.ar    1  UNL1        0.0111
     11 O         139.0973  143.6627  162.7370 O.3     1  UNL1       -0.3537
     12 C         137.8130  142.9380  162.4622 C.3     1  UNL1        0.1436
     13 C         137.4775  141.6909  163.2252 C.3     1  UNL1        0.0494
     14 C         137.8892  140.3512  162.6909 C.3     1  UNL1        0.0747
     15 N         139.0218  139.6043  163.3308 N.3     1  UNL1       -0.2726
     16 C         138.7441  138.3797  164.1513 C.3     1  UNL1        0.0721
     17 C         139.8766  137.6329  164.7911 C.3     1  UNL1        0.0174
     18 C         141.2870  138.1107  164.6106 C.3     1  UNL1        0.0029
     19 C         141.5648  139.3352  163.7901 C.3     1  UNL1        0.0174
     20 C         140.4322  140.0821  163.1502 C.3     1  UNL1        0.0721
@<TRIPOS>BOND
     1     4     5    1
     2     5     6   ar
     3     6     7   ar
     4     7     8   ar
     5     8     3    1
     6     3     2    1
     7     2     1    1
     8     1    11    1
     9    11    12    1
    10    12    13    1
    11    13    14    1
    12    14    15    1
    13    15    16    1
    14    16    17    1
    15    17    18    1
    16    18    19    1
    17    19    20    1
    18     8     9   ar
    19     9    10   ar
    20    10     5   ar
    21    20    15    1
@<TRIPOS>MOLECULE
*****
 20 21 0 0 0
SMALL
GASTEIGER

@<TRIPOS>ATOM
      1 C         145.3864  141.7509  163.9770 C.3     1  UNL1        0.1425
      2 C         145.1807  140.2669  163.9025 C.3     1  UNL1        0.0367
      3 C         144.2529  139.5890  164.8666 C.3     1  UNL1        0.0289
      4 CL        138.9549  137.5062  162.9712 Cl      1  UNL1       -0.0822
      5 C         140.2794  138.0269  163.4451 C.ar    1  UNL1        0.0577
      6 C         140.9798  137.3616  164.5925 C.ar    1  UNL1        0.0111
      7 C         142.3043  137.8823  165.0664 C.ar    1  UNL1       -0.0034
      8 C         142.9284  139.0683  164.3928 C.ar    1  UNL1       -0.0221
      9 C         142.2280  139.7336  163.2453 C.ar    1  UNL1       -0.0034
     10 C         140.9035  139.2129  162.7715 C.ar    1  UNL1        0.0111
     11 O         144.5125  142.6703  163.1764 O.3     1  UNL1       -0.3537
     12 C         143.4189  143.4430  163.8525 C.3     1  UNL1        0.1436
     13 C         142.7360  142.8750  165.0611 C.3     1  UNL1        0.0494
     14 C         141.2818  143.1537  165.3012 C.3     1  UNL1        0.0747
     15 N         140.3282  142.0185  165.5293 N.3     1  UNL1       -0.2726
     16 C         139.1184  141.8681  164.6554 C.3     1  UNL1        0.0721
     17 C         138.1649  140.7329  164.8834 C.3     1  UNL1        0.0174
     18 C         138.4212  139.7480  165.9854 C.3     1  UNL1        0.0029
     19 C         139.6310  139.8984  166.8593 C.3     1  UNL1        0.0174
     20 C         140.5845  141.0336  166.6312 C.3     1  UNL1        0.0721
@<TRIPOS>BOND
     1     4     5    1
     2     5     6   ar
     3     6     7   ar
     4     7     8   ar
     5     8     3    1
     6     3     2    1
     7     2     1    1
     8     1    11    1
     9    11    12    1
    10    12    13    1
    11    13    14    1
    12    14    15    1
    13    15    16    1
    14    16    17    1
    15    17    18    1
    16    18    19    1
    17    19    20    1
    18     8     9   ar
    19     9    10   ar
    20    10     5   ar
    21    20    15    1
