@<TRIPOS>MOLECULE
*****
 29 32 0 0 0
SMALL
GASTEIGER

@<TRIPOS>ATOM
      1 N         143.1571  141.8456  166.0019 N.3     1  UNL1       -0.2727
      2 C         143.3289  142.4131  167.3797 C.3     1  UNL1        0.0724
      3 C         142.3273  142.0978  168.4509 C.3     1  UNL1        0.0220
      4 C         141.1539  141.2151  168.1441 C.3     1  UNL1        0.0329
      5 C         140.9822  140.6476  166.7663 C.3     1  UNL1        0.0220
      6 C         141.9838  140.9629  165.6952 C.3     1  UNL1        0.0724
      7 C         141.3256  141.7825  169.5221 C.3     1  UNL1        0.0896
      8 C         140.3240  141.4672  170.5932 C.2     1  UNL1        0.2275
      9 O         140.4957  142.0347  171.9711 O.2     1  UNL1       -0.2747
     10 N         139.1507  140.5845  170.2865 N.am    1  UNL1       -0.2696
     11 C         138.9790  140.0170  168.9086 C.ar    1  UNL1        0.1300
     12 N         137.8057  139.1343  168.6019 N.ar    1  UNL1       -0.2293
     13 C         137.6340  138.5668  167.2240 C.ar    1  UNL1        0.1003
     14 C         138.6356  138.8821  166.1529 C.ar    1  UNL1        0.0204
     15 C         139.8089  139.7649  166.4596 C.ar    1  UNL1        0.0001
     16 C         139.9806  140.3323  167.8374 C.ar    1  UNL1        0.0095
     17 H         138.4933  140.3776  170.9895 H       1  UNL1        0.1562
     18 C         144.1588  142.1609  164.9307 C.3     1  UNL1        0.0722
     19 C         142.3006  144.0601  159.5511 C.2     1  UNL1        0.4049
     20 O         142.5107  143.2017  158.3390 O.2     1  UNL1       -0.2262
     21 N         142.7652  143.5853  160.8960 N.am    1  UNL1       -0.2460
     22 C         142.5551  144.4436  162.1080 C.3     1  UNL1        0.0968
     23 C         143.0196  143.9689  163.4530 C.3     1  UNL1        0.0231
     24 C         143.6942  142.6357  163.5858 C.3     1  UNL1        0.0194
     25 C         143.9043  141.7774  162.3737 C.3     1  UNL1        0.0231
     26 C         143.4398  142.2521  161.0288 C.3     1  UNL1        0.0968
     27 O         141.6260  145.3932  159.4183 O.3     1  UNL1       -0.4345
     28 C         140.4335  145.9879  157.1879 C.3     1  UNL1        0.0513
     29 C         140.3677  145.5200  158.6116 C.3     1  UNL1        0.2102
@<TRIPOS>BOND
     1    28    29    1
     2    29    27    1
     3    27    19    1
     4    19    20    2
     5    19    21   am
     6    21    22    1
     7    22    23    1
     8    23    24    1
     9    24    18    1
    10    18     1    1
    11     1     2    1
    12     2     3    1
    13     3     4    1
    14     4     5    1
    15     5     6    1
    16     4     7    1
    17     7     8    1
    18     8     9    2
    19     8    10   am
    20    10    11    1
    21    11    12   ar
    22    12    13   ar
    23    13    14   ar
    24    14    15   ar
    25    15    16   ar
    26    24    25    1
    27    25    26    1
    28    26    21    1
    29     6     1    1
    30    16    11   ar
    31    16     4    1
    32    10    17    1
@<TRIPOS>MOLECULE
*****
 29 32 0 0 0
SMALL
GASTEIGER

@<TRIPOS>ATOM
      1 N         143.4236  142.4542  166.4057 N.3     1  UNL1       -0.2727
      2 C         143.5134  142.6097  167.8949 C.3     1  UNL1        0.0724
      3 C         142.4764  141.9820  168.7784 C.3     1  UNL1        0.0220
      4 C         141.3495  141.1989  168.1726 C.3     1  UNL1        0.0329
      5 C         141.2596  141.0435  166.6834 C.3     1  UNL1        0.0220
      6 C         142.2967  141.6711  165.8000 C.3     1  UNL1        0.0724
      7 C         141.4393  141.3543  169.6619 C.3     1  UNL1        0.0896
      8 C         140.4023  140.7267  170.5454 C.2     1  UNL1        0.2275
      9 O         140.4921  140.8821  172.0346 O.2     1  UNL1       -0.2747
     10 N         139.2754  139.9436  169.9396 N.am    1  UNL1       -0.2696
     11 C         139.1855  139.7881  168.4505 C.ar    1  UNL1        0.1300
     12 N         138.0587  139.0050  167.8447 N.ar    1  UNL1       -0.2293
     13 C         137.9688  138.8496  166.3555 C.ar    1  UNL1        0.1003
     14 C         139.0059  139.4773  165.4720 C.ar    1  UNL1        0.0204
     15 C         140.1328  140.2604  166.0777 C.ar    1  UNL1        0.0001
     16 C         140.2226  140.4158  167.5669 C.ar    1  UNL1        0.0095
     17 H         138.5947  139.5316  170.5195 H       1  UNL1        0.1562
     18 C         144.4606  143.0819  165.5222 C.3     1  UNL1        0.0722
     19 C         143.8202  142.9153  159.5588 C.2     1  UNL1        0.4049
     20 O         142.9608  143.9323  158.8680 O.2     1  UNL1       -0.2262
     21 N         143.9803  142.9569  161.0496 N.am    1  UNL1       -0.2460
     22 C         144.8398  141.9400  161.7403 C.3     1  UNL1        0.0968
     23 C         144.9999  141.9816  163.2312 C.3     1  UNL1        0.0231
     24 C         144.3005  143.0402  164.0313 C.3     1  UNL1        0.0194
     25 C         143.4411  144.0572  163.3406 C.3     1  UNL1        0.0231
     26 C         143.2810  144.0156  161.8498 C.3     1  UNL1        0.0968
     27 O         144.5196  141.8566  158.7587 O.3     1  UNL1       -0.4345
     28 C         146.5162  142.6103  157.2768 C.3     1  UNL1        0.0513
     29 C         145.0832  142.1869  157.4083 C.3     1  UNL1        0.2102
@<TRIPOS>BOND
     1    28    29    1
     2    29    27    1
     3    27    19    1
     4    19    20    2
     5    19    21   am
     6    21    22    1
     7    22    23    1
     8    23    24    1
     9    24    18    1
    10    18     1    1
    11     1     2    1
    12     2     3    1
    13     3     4    1
    14     4     5    1
    15     5     6    1
    16     4     7    1
    17     7     8    1
    18     8     9    2
    19     8    10   am
    20    10    11    1
    21    11    12   ar
    22    12    13   ar
    23    13    14   ar
    24    14    15   ar
    25    15    16   ar
    26    24    25    1
    27    25    26    1
    28    26    21    1
    29     6     1    1
    30    16    11   ar
    31    16     4    1
    32    10    17    1
@<TRIPOS>MOLECULE
*****
 29 32 0 0 0
SMALL
GASTEIGER

@<TRIPOS>ATOM
      1 N         143.2021  141.8938  165.9008 N.3     1  UNL1       -0.2727
      2 C         143.3728  142.4681  167.2760 C.3     1  UNL1        0.0724
      3 C         142.3768  142.1486  168.3511 C.3     1  UNL1        0.0220
      4 C         141.2101  141.2549  168.0510 C.3     1  UNL1        0.0329
      5 C         141.0394  140.6806  166.6759 C.3     1  UNL1        0.0220
      6 C         142.0354  141.0001  165.6008 C.3     1  UNL1        0.0724
      7 C         141.3807  141.8292  169.4263 C.3     1  UNL1        0.0896
      8 C         140.3847  141.5097  170.5014 C.2     1  UNL1        0.2275
      9 O         140.5554  142.0840  171.8766 O.2     1  UNL1       -0.2747
     10 N         139.2181  140.6159  170.2013 N.am    1  UNL1       -0.2696
     11 C         139.0473  140.0417  168.8262 C.ar    1  UNL1        0.1300
     12 N         137.8806  139.1479  168.5262 N.ar    1  UNL1       -0.2293
     13 C         137.7100  138.5736  167.1510 C.ar    1  UNL1        0.1003
     14 C         138.7060  138.8931  166.0759 C.ar    1  UNL1        0.0204
     15 C         139.8727  139.7868  166.3759 C.ar    1  UNL1        0.0001
     16 C         140.0434  140.3611  167.7510 C.ar    1  UNL1        0.0095
     17 H         138.5643  140.4063  170.9070 H       1  UNL1        0.1562
     18 C         144.1981  142.2133  164.8257 C.3     1  UNL1        0.0722
     19 C         143.2762  140.2945  159.2160 C.2     1  UNL1        0.4049
     20 O         142.6079  141.1917  158.2167 O.2     1  UNL1       -0.2262
     21 N         143.5067  140.7742  160.6184 N.am    1  UNL1       -0.2460
     22 C         144.1749  139.8770  161.6176 C.3     1  UNL1        0.0968
     23 C         144.4054  140.3567  163.0201 C.3     1  UNL1        0.0231
     24 C         143.9676  141.7336  163.4233 C.3     1  UNL1        0.0194
     25 C         143.2993  142.6308  162.4240 C.3     1  UNL1        0.0231
     26 C         143.0689  142.1511  161.0216 C.3     1  UNL1        0.0968
     27 O         143.7140  138.9176  158.8129 O.3     1  UNL1       -0.4345
     28 C         142.8067  137.0653  157.2331 C.3     1  UNL1        0.0513
     29 C         142.6904  137.8682  158.4947 C.3     1  UNL1        0.2102
@<TRIPOS>BOND
     1    28    29    1
     2    29    27    1
     3    27    19    1
     4    19    20    2
     5    19    21   am
     6    21    22    1
     7    22    23    1
     8    23    24    1
     9    24    18    1
    10    18     1    1
    11     1     2    1
    12     2     3    1
    13     3     4    1
    14     4     5    1
    15     5     6    1
    16     4     7    1
    17     7     8    1
    18     8     9    2
    19     8    10   am
    20    10    11    1
    21    11    12   ar
    22    12    13   ar
    23    13    14   ar
    24    14    15   ar
    25    15    16   ar
    26    24    25    1
    27    25    26    1
    28    26    21    1
    29     6     1    1
    30    16    11   ar
    31    16     4    1
    32    10    17    1
@<TRIPOS>MOLECULE
*****
 29 32 0 0 0
SMALL
GASTEIGER

@<TRIPOS>ATOM
      1 N         140.8299  140.2480  164.9946 N.3     1  UNL1       -0.2727
      2 C         139.5877  139.6654  165.6007 C.3     1  UNL1        0.0724
      3 C         139.3257  139.8212  167.0694 C.3     1  UNL1        0.0220
      4 C         140.3059  140.5596  167.9319 C.3     1  UNL1        0.0329
      5 C         141.5481  141.1422  167.3258 C.3     1  UNL1        0.0220
      6 C         141.8101  140.9864  165.8571 C.3     1  UNL1        0.0724
      7 C         139.0636  139.9770  168.5381 C.3     1  UNL1        0.0896
      8 C         138.8016  140.1329  170.0068 C.2     1  UNL1        0.2275
      9 O         137.5594  139.5503  170.6130 O.2     1  UNL1       -0.2747
     10 N         139.7819  140.8712  170.8693 N.am    1  UNL1       -0.2696
     11 C         141.0241  141.4538  170.2632 C.ar    1  UNL1        0.1300
     12 N         142.0043  142.1922  171.1257 N.ar    1  UNL1       -0.2293
     13 C         143.2466  142.7748  170.5195 C.ar    1  UNL1        0.1003
     14 C         143.5086  142.6190  169.0508 C.ar    1  UNL1        0.0204
     15 C         142.5283  141.8806  168.1883 C.ar    1  UNL1        0.0001
     16 C         141.2861  141.2980  168.7944 C.ar    1  UNL1        0.0095
     17 H         139.6099  140.9735  171.8333 H       1  UNL1        0.1562
     18 C         141.0919  140.0922  163.5258 C.3     1  UNL1        0.0722
     19 C         141.0140  144.9006  159.9379 C.2     1  UNL1        0.4049
     20 O         139.8000  145.7803  159.8890 O.2     1  UNL1       -0.2262
     21 N         141.0335  143.6985  160.8349 N.am    1  UNL1       -0.2460
     22 C         142.2475  142.8189  160.8838 C.3     1  UNL1        0.0968
     23 C         142.2670  141.6167  161.7808 C.3     1  UNL1        0.0231
     24 C         141.0725  141.2943  162.6289 C.3     1  UNL1        0.0194
     25 C         139.8584  142.1740  162.5799 C.3     1  UNL1        0.0231
     26 C         139.8390  143.3760  161.6829 C.3     1  UNL1        0.0968
     27 O         142.2085  145.2230  159.0899 O.3     1  UNL1       -0.4345
     28 C         141.3942  145.8882  156.7141 C.3     1  UNL1        0.0513
     29 C         142.1693  144.9700  157.6119 C.3     1  UNL1        0.2102
@<TRIPOS>BOND
     1    28    29    1
     2    29    27    1
     3    27    19    1
     4    19    20    2
     5    19    21   am
     6    21    22    1
     7    22    23    1
     8    23    24    1
     9    24    18    1
    10    18     1    1
    11     1     2    1
    12     2     3    1
    13     3     4    1
    14     4     5    1
    15     5     6    1
    16     4     7    1
    17     7     8    1
    18     8     9    2
    19     8    10   am
    20    10    11    1
    21    11    12   ar
    22    12    13   ar
    23    13    14   ar
    24    14    15   ar
    25    15    16   ar
    26    24    25    1
    27    25    26    1
    28    26    21    1
    29     6     1    1
    30    16    11   ar
    31    16     4    1
    32    10    17    1
@<TRIPOS>MOLECULE
*****
 29 32 0 0 0
SMALL
GASTEIGER

@<TRIPOS>ATOM
      1 N         141.2316  139.6094  165.1809 N.3     1  UNL1       -0.2727
      2 C         139.9361  139.1237  165.7602 C.3     1  UNL1        0.0724
      3 C         139.5543  139.4975  167.1618 C.3     1  UNL1        0.0220
      4 C         140.4681  140.3570  167.9841 C.3     1  UNL1        0.0329
      5 C         141.7636  140.8427  167.4049 C.3     1  UNL1        0.0220
      6 C         142.1454  140.4689  166.0033 C.3     1  UNL1        0.0724
      7 C         139.1724  139.8713  168.5634 C.3     1  UNL1        0.0896
      8 C         138.7907  140.2451  169.9650 C.2     1  UNL1        0.2275
      9 O         137.4951  139.7594  170.5443 O.2     1  UNL1       -0.2747
     10 N         139.7045  141.1046  170.7873 N.am    1  UNL1       -0.2696
     11 C         141.0000  141.5903  170.2081 C.ar    1  UNL1        0.1300
     12 N         141.9138  142.4498  171.0304 N.ar    1  UNL1       -0.2293
     13 C         143.2094  142.9355  170.4511 C.ar    1  UNL1        0.1003
     14 C         143.5912  142.5617  169.0496 C.ar    1  UNL1        0.0204
     15 C         142.6774  141.7022  168.2272 C.ar    1  UNL1        0.0001
     16 C         141.3818  141.2165  168.8064 C.ar    1  UNL1        0.0095
     17 H         139.4539  141.3499  171.7073 H       1  UNL1        0.1562
     18 C         141.6135  139.2356  163.7793 C.3     1  UNL1        0.0722
     19 C         138.3259  141.1836  159.1536 C.2     1  UNL1        0.4049
     20 O         137.5028  140.2145  158.3576 O.2     1  UNL1       -0.2262
     21 N         139.1478  140.6966  160.3100 N.am    1  UNL1       -0.2460
     22 C         139.9708  141.6656  161.1059 C.3     1  UNL1        0.0968
     23 C         140.7928  141.1787  162.2623 C.3     1  UNL1        0.0231
     24 C         140.7916  139.7226  162.6229 C.3     1  UNL1        0.0194
     25 C         139.9685  138.7536  161.8269 C.3     1  UNL1        0.0231
     26 C         139.1466  139.2406  160.6705 C.3     1  UNL1        0.0968
     27 O         138.3271  142.6396  158.7931 O.3     1  UNL1       -0.4345
     28 C         140.0516  144.4770  158.1604 C.3     1  UNL1        0.0513
     29 C         139.3652  143.1789  157.8541 C.3     1  UNL1        0.2102
@<TRIPOS>BOND
     1    28    29    1
     2    29    27    1
     3    27    19    1
     4    19    20    2
     5    19    21   am
     6    21    22    1
     7    22    23    1
     8    23    24    1
     9    24    18    1
    10    18     1    1
    11     1     2    1
    12     2     3    1
    13     3     4    1
    14     4     5    1
    15     5     6    1
    16     4     7    1
    17     7     8    1
    18     8     9    2
    19     8    10   am
    20    10    11    1
    21    11    12   ar
    22    12    13   ar
    23    13    14   ar
    24    14    15   ar
    25    15    16   ar
    26    24    25    1
    27    25    26    1
    28    26    21    1
    29     6     1    1
    30    16    11   ar
    31    16     4    1
    32    10    17    1
@<TRIPOS>MOLECULE
*****
 29 32 0 0 0
SMALL
GASTEIGER

@<TRIPOS>ATOM
      1 N         140.2189  140.9510  162.7704 N.3     1  UNL1       -0.2727
      2 C         139.1034  139.9666  162.9612 C.3     1  UNL1        0.0724
      3 C         138.6908  139.5597  164.3447 C.3     1  UNL1        0.0220
      4 C         139.3936  140.1373  165.5374 C.3     1  UNL1        0.0329
      5 C         140.5091  141.1217  165.3466 C.3     1  UNL1        0.0220
      6 C         140.9217  141.5286  163.9631 C.3     1  UNL1        0.0724
      7 C         138.2780  139.1527  165.7283 C.3     1  UNL1        0.0896
      8 C         137.8654  138.7459  167.1118 C.2     1  UNL1        0.2275
      9 O         136.7498  137.7613  167.3027 O.2     1  UNL1       -0.2747
     10 N         138.5682  139.3234  168.3044 N.am    1  UNL1       -0.2696
     11 C         139.6837  140.3079  168.1136 C.ar    1  UNL1        0.1300
     12 N         140.3865  140.8854  169.3063 N.ar    1  UNL1       -0.2293
     13 C         141.5021  141.8699  169.1154 C.ar    1  UNL1        0.1003
     14 C         141.9148  142.2768  167.7319 C.ar    1  UNL1        0.0204
     15 C         141.2119  141.6993  166.5392 C.ar    1  UNL1        0.0001
     16 C         140.0964  140.7148  166.7301 C.ar    1  UNL1        0.0095
     17 H         138.2974  139.0563  169.2125 H       1  UNL1        0.1562
     18 C         140.6316  141.3580  161.3869 C.3     1  UNL1        0.0722
     19 C         141.8949  137.1707  157.2794 C.2     1  UNL1        0.4049
     20 O         140.8650  136.7867  156.2586 O.2     1  UNL1       -0.2262
     21 N         141.5791  138.2175  158.3063 N.am    1  UNL1       -0.2460
     22 C         142.6089  138.6016  159.3270 C.3     1  UNL1        0.0968
     23 C         142.2931  139.6484  160.3539 C.3     1  UNL1        0.0231
     24 C         140.9474  140.3112  160.3600 C.3     1  UNL1        0.0194
     25 C         139.9176  139.9271  159.3392 C.3     1  UNL1        0.0231
     26 C         140.2334  138.8803  158.3124 C.3     1  UNL1        0.0968
     27 O         143.2405  136.5080  157.2734 O.3     1  UNL1       -0.4345
     28 C         143.6043  133.9750  157.7228 C.3     1  UNL1        0.0513
     29 C         143.3833  135.1052  156.7616 C.3     1  UNL1        0.2102
@<TRIPOS>BOND
     1    28    29    1
     2    29    27    1
     3    27    19    1
     4    19    20    2
     5    19    21   am
     6    21    22    1
     7    22    23    1
     8    23    24    1
     9    24    18    1
    10    18     1    1
    11     1     2    1
    12     2     3    1
    13     3     4    1
    14     4     5    1
    15     5     6    1
    16     4     7    1
    17     7     8    1
    18     8     9    2
    19     8    10   am
    20    10    11    1
    21    11    12   ar
    22    12    13   ar
    23    13    14   ar
    24    14    15   ar
    25    15    16   ar
    26    24    25    1
    27    25    26    1
    28    26    21    1
    29     6     1    1
    30    16    11   ar
    31    16     4    1
    32    10    17    1
@<TRIPOS>MOLECULE
*****
 29 32 0 0 0
SMALL
GASTEIGER

@<TRIPOS>ATOM
      1 N         140.7540  138.3940  162.7293 N.3     1  UNL1       -0.2727
      2 C         139.5080  137.6800  163.1622 C.3     1  UNL1        0.0724
      3 C         138.9379  137.9271  164.5274 C.3     1  UNL1        0.0220
      4 C         139.6138  138.8883  165.4597 C.3     1  UNL1        0.0329
      5 C         140.8599  139.6023  165.0269 C.3     1  UNL1        0.0220
      6 C         141.4300  139.3552  163.6617 C.3     1  UNL1        0.0724
      7 C         138.3677  138.1742  165.8927 C.3     1  UNL1        0.0896
      8 C         137.7976  138.4214  167.2579 C.2     1  UNL1        0.2275
      9 O         136.5514  137.7073  167.6908 O.2     1  UNL1       -0.2747
     10 N         138.4735  139.3825  168.1902 N.am    1  UNL1       -0.2696
     11 C         139.7196  140.0966  167.7574 C.ar    1  UNL1        0.1300
     12 N         140.3955  141.0577  168.6897 N.ar    1  UNL1       -0.2293
     13 C         141.6417  141.7718  168.2568 C.ar    1  UNL1        0.1003
     14 C         142.2118  141.5247  166.8916 C.ar    1  UNL1        0.0204
     15 C         141.5358  140.5635  165.9592 C.ar    1  UNL1        0.0001
     16 C         140.2898  139.8495  166.3921 C.ar    1  UNL1        0.0095
     17 H         138.0993  139.5447  169.0863 H       1  UNL1        0.1562
     18 C         141.3242  138.1469  161.3640 C.3     1  UNL1        0.0722
     19 C         143.9065  142.6358  158.3339 C.2     1  UNL1        0.4049
     20 O         143.0658  143.7471  157.7786 O.2     1  UNL1       -0.2262
     21 N         143.2609  141.5136  159.0914 N.am    1  UNL1       -0.2460
     22 C         144.1016  140.4024  159.6467 C.3     1  UNL1        0.0968
     23 C         143.4561  139.2801  160.4043 C.3     1  UNL1        0.0231
     24 C         141.9698  139.2691  160.6065 C.3     1  UNL1        0.0194
     25 C         141.1291  140.3804  160.0512 C.3     1  UNL1        0.0231
     26 C         141.7747  141.5026  159.2936 C.3     1  UNL1        0.0968
     27 O         145.3928  142.6467  158.1317 O.3     1  UNL1       -0.4345
     28 C         145.1588  141.1498  156.0211 C.3     1  UNL1        0.0513
     29 C         145.9848  142.0537  156.8875 C.3     1  UNL1        0.2102
@<TRIPOS>BOND
     1    28    29    1
     2    29    27    1
     3    27    19    1
     4    19    20    2
     5    19    21   am
     6    21    22    1
     7    22    23    1
     8    23    24    1
     9    24    18    1
    10    18     1    1
    11     1     2    1
    12     2     3    1
    13     3     4    1
    14     4     5    1
    15     5     6    1
    16     4     7    1
    17     7     8    1
    18     8     9    2
    19     8    10   am
    20    10    11    1
    21    11    12   ar
    22    12    13   ar
    23    13    14   ar
    24    14    15   ar
    25    15    16   ar
    26    24    25    1
    27    25    26    1
    28    26    21    1
    29     6     1    1
    30    16    11   ar
    31    16     4    1
    32    10    17    1
@<TRIPOS>MOLECULE
*****
 29 32 0 0 0
SMALL
GASTEIGER

@<TRIPOS>ATOM
      1 N         139.7163  142.5266  164.3506 N.3     1  UNL1       -0.2727
      2 C         140.4910  141.3111  163.9357 C.3     1  UNL1        0.0724
      3 C         141.3110  140.5637  164.9451 C.3     1  UNL1        0.0220
      4 C         141.3563  141.0319  166.3695 C.3     1  UNL1        0.0329
      5 C         140.5815  142.2474  166.7844 C.3     1  UNL1        0.0220
      6 C         139.7615  142.9948  165.7749 C.3     1  UNL1        0.0724
      7 C         142.1311  139.8163  165.9546 C.3     1  UNL1        0.0896
      8 C         142.9511  139.0689  166.9640 C.2     1  UNL1        0.2275
      9 O         143.7259  137.8533  166.5491 O.2     1  UNL1       -0.2747
     10 N         142.9963  139.5371  168.3883 N.am    1  UNL1       -0.2696
     11 C         142.2216  140.7526  168.8033 C.ar    1  UNL1        0.1300
     12 N         142.2668  141.2208  170.2276 N.ar    1  UNL1       -0.2293
     13 C         141.4920  142.4364  170.6425 C.ar    1  UNL1        0.1003
     14 C         140.6720  143.1837  169.6331 C.ar    1  UNL1        0.0204
     15 C         140.6268  142.7156  168.2087 C.ar    1  UNL1        0.0001
     16 C         141.4015  141.5000  167.7938 C.ar    1  UNL1        0.0095
     17 H         143.5345  139.0465  169.0509 H       1  UNL1        0.1562
     18 C         138.8962  143.2740  163.3411 C.3     1  UNL1        0.0722
     19 C         141.3679  145.0009  158.1538 C.2     1  UNL1        0.4049
     20 O         142.4211  146.0690  158.1437 O.2     1  UNL1       -0.2262
     21 N         140.7500  144.5692  159.4506 N.am    1  UNL1       -0.2460
     22 C         139.6968  143.5012  159.4607 C.3     1  UNL1        0.0968
     23 C         139.0789  143.0695  160.7576 C.3     1  UNL1        0.0231
     24 C         139.5141  143.7058  162.0443 C.3     1  UNL1        0.0194
     25 C         140.5674  144.7738  162.0342 C.3     1  UNL1        0.0231
     26 C         141.1853  145.2055  160.7374 C.3     1  UNL1        0.0968
     27 O         140.9326  144.3646  156.8671 O.3     1  UNL1       -0.4345
     28 C         139.5289  146.4518  156.2165 C.3     1  UNL1        0.0513
     29 C         140.2279  145.1833  155.8263 C.3     1  UNL1        0.2102
@<TRIPOS>BOND
     1    28    29    1
     2    29    27    1
     3    27    19    1
     4    19    20    2
     5    19    21   am
     6    21    22    1
     7    22    23    1
     8    23    24    1
     9    24    18    1
    10    18     1    1
    11     1     2    1
    12     2     3    1
    13     3     4    1
    14     4     5    1
    15     5     6    1
    16     4     7    1
    17     7     8    1
    18     8     9    2
    19     8    10   am
    20    10    11    1
    21    11    12   ar
    22    12    13   ar
    23    13    14   ar
    24    14    15   ar
    25    15    16   ar
    26    24    25    1
    27    25    26    1
    28    26    21    1
    29     6     1    1
    30    16    11   ar
    31    16     4    1
    32    10    17    1
@<TRIPOS>MOLECULE
*****
 29 32 0 0 0
SMALL
GASTEIGER

@<TRIPOS>ATOM
      1 N         141.9769  141.0995  164.7973 N.3     1  UNL1       -0.2727
      2 C         143.1937  141.7970  165.3290 C.3     1  UNL1        0.0724
      3 C         143.3381  142.0340  166.8031 C.3     1  UNL1        0.0220
      4 C         142.2658  141.5734  167.7454 C.3     1  UNL1        0.0329
      5 C         141.0490  140.8758  167.2136 C.3     1  UNL1        0.0220
      6 C         140.9046  140.6389  165.7396 C.3     1  UNL1        0.0724
      7 C         143.4826  142.2710  168.2773 C.3     1  UNL1        0.0896
      8 C         143.6270  142.5079  169.7513 C.2     1  UNL1        0.2275
      9 O         144.8438  143.2055  170.2832 O.2     1  UNL1       -0.2747
     10 N         142.5547  142.0473  170.6936 N.am    1  UNL1       -0.2696
     11 C         141.3379  141.3498  170.1619 C.ar    1  UNL1        0.1300
     12 N         140.2655  140.8892  171.1042 N.ar    1  UNL1       -0.2293
     13 C         139.0487  140.1916  170.5723 C.ar    1  UNL1        0.1003
     14 C         138.9043  139.9546  169.0982 C.ar    1  UNL1        0.0204
     15 C         139.9766  140.4152  168.1559 C.ar    1  UNL1        0.0001
     16 C         141.1934  141.1128  168.6877 C.ar    1  UNL1        0.0095
     17 H         142.6495  142.2029  171.6611 H       1  UNL1        0.1562
     18 C         141.8324  140.8625  163.3231 C.3     1  UNL1        0.0722
     19 C         140.1260  145.3441  159.7172 C.2     1  UNL1        0.4049
     20 O         139.4524  146.5547  160.2925 O.2     1  UNL1       -0.2262
     21 N         140.5526  144.2237  160.6187 N.am    1  UNL1       -0.2460
     22 C         141.2261  143.0132  160.0434 C.3     1  UNL1        0.0968
     23 C         141.6528  141.8928  160.9448 C.3     1  UNL1        0.0231
     24 C         141.4058  141.9829  162.4216 C.3     1  UNL1        0.0194
     25 C         140.7323  143.1935  162.9969 C.3     1  UNL1        0.0231
     26 C         140.3057  144.3138  162.0954 C.3     1  UNL1        0.0968
     27 O         140.3729  145.2540  158.2404 O.3     1  UNL1       -0.4345
     28 C         142.1935  145.3127  156.3877 C.3     1  UNL1        0.0513
     29 C         141.6022  145.8753  157.6462 C.3     1  UNL1        0.2102
@<TRIPOS>BOND
     1    28    29    1
     2    29    27    1
     3    27    19    1
     4    19    20    2
     5    19    21   am
     6    21    22    1
     7    22    23    1
     8    23    24    1
     9    24    18    1
    10    18     1    1
    11     1     2    1
    12     2     3    1
    13     3     4    1
    14     4     5    1
    15     5     6    1
    16     4     7    1
    17     7     8    1
    18     8     9    2
    19     8    10   am
    20    10    11    1
    21    11    12   ar
    22    12    13   ar
    23    13    14   ar
    24    14    15   ar
    25    15    16   ar
    26    24    25    1
    27    25    26    1
    28    26    21    1
    29     6     1    1
    30    16    11   ar
    31    16     4    1
    32    10    17    1
