@<TRIPOS>MOLECULE
*****
 31 35 0 0 0
SMALL
GASTEIGER

@<TRIPOS>ATOM
      1 C         142.5669  140.7415  163.8209 C.ar    1  UNL1        0.0833
      2 C         141.7063  141.7792  163.1633 C.ar    1  UNL1        0.0507
      3 C         141.0064  142.8112  163.9972 C.ar    1  UNL1        0.1347
      4 N         141.1672  142.8054  165.4885 N.ar    1  UNL1       -0.2122
      5 C         142.0278  141.7676  166.1460 C.ar    1  UNL1        0.1600
      6 N         142.7277  140.7356  165.3123 N.ar    1  UNL1       -0.2295
      7 C         142.1886  141.7618  167.6374 C.2     1  UNL1        0.0230
      8 C         143.4403  142.3065  168.2590 C.2     1  UNL1       -0.0005
      9 C         143.6010  142.3007  169.7502 C.2     1  UNL1        0.0010
     10 C         142.5100  141.7502  170.6201 C.2     1  UNL1        0.0153
     11 C         141.2583  141.2054  169.9986 C.2     1  UNL1        0.0669
     12 N         140.0216  140.6022  170.5958 N.2     1  UNL1       -0.2478
     13 C         139.0965  140.2352  169.4735 C.2     1  UNL1        0.0946
     14 C         139.7615  140.6116  168.1827 C.2     1  UNL1        0.0046
     15 C         141.0976  141.2112  168.5072 C.3     1  UNL1        0.0888
     16 C         143.2668  139.7096  162.9871 C.3     1  UNL1        0.1503
     17 C         141.8476  139.2483  162.8352 C.3     1  UNL1        0.0598
     18 C         141.5368  138.0397  162.0029 C.3     1  UNL1        0.1443
     19 O         142.6451  137.2925  161.3224 O.3     1  UNL1       -0.3536
     20 C         144.0643  137.7537  161.4743 C.3     1  UNL1        0.1443
     21 C         144.3752  138.9623  162.3066 C.3     1  UNL1        0.0598
     22 C         145.6192  141.3488  163.8698 C.3     1  UNL1        0.1764
     23 S         144.4430  140.5291  163.4285 S.O2    1  UNL1       -0.0063
     24 O         144.3713  141.5351  162.7507 O.2     1  UNL1       -0.1727
     25 O         144.8276  139.4538  164.4009 O.2     1  UNL1       -0.1727
     26 N         140.1458  143.8490  163.3396 N.pl3   1  UNL1       -0.2880
     27 C         138.6516  143.7447  163.4198 C.3     1  UNL1        0.1242
     28 C         137.7910  144.7824  162.7623 C.3     1  UNL1        0.1636
     29 O         138.4247  145.9245  162.0245 O.3     1  UNL1       -0.3501
     30 C         139.9188  146.0287  161.9443 C.3     1  UNL1        0.1636
     31 C         140.7794  144.9910  162.6019 C.3     1  UNL1        0.1242
@<TRIPOS>BOND
     1    22    23    1
     2    23    24    2
     3    23    25    2
     4    23    16    1
     5    16     1    1
     6     1     2   ar
     7     2     3   ar
     8     3    26    1
     9    26    27    1
    10    27    28    1
    11    28    29    1
    12    29    30    1
    13    30    31    1
    14     3     4   ar
    15     4     5   ar
    16     5     7    1
    17     7     8    2
    18     8     9    1
    19     9    10    2
    20    10    11    1
    21    11    12    2
    22    12    13    1
    23    13    14    2
    24    14    15    1
    25     5     6   ar
    26    16    17    1
    27    17    18    1
    28    18    19    1
    29    19    20    1
    30    20    21    1
    31    21    16    1
    32     6     1   ar
    33    31    26    1
    34    15     7    1
    35    15    11    1
@<TRIPOS>MOLECULE
*****
 31 35 0 0 0
SMALL
GASTEIGER

@<TRIPOS>ATOM
      1 C         141.3656  143.1557  163.5683 C.ar    1  UNL1        0.0833
      2 C         141.7297  141.9943  162.6916 C.ar    1  UNL1        0.0507
      3 C         142.2044  140.7108  163.3060 C.ar    1  UNL1        0.1347
      4 N         142.3149  140.5888  164.7968 N.ar    1  UNL1       -0.2122
      5 C         141.9508  141.7502  165.6735 C.ar    1  UNL1        0.1600
      6 N         141.4762  143.0337  165.0593 N.ar    1  UNL1       -0.2295
      7 C         142.0613  141.6282  167.1645 C.2     1  UNL1        0.0230
      8 C         143.2543  142.1933  167.8769 C.2     1  UNL1       -0.0005
      9 C         143.3648  142.0712  169.3677 C.2     1  UNL1        0.0010
     10 C         142.2824  141.3840  170.1463 C.2     1  UNL1        0.0153
     11 C         141.0895  140.8188  169.4340 C.2     1  UNL1        0.0669
     12 N         139.8743  140.0934  169.9311 N.2     1  UNL1       -0.2478
     13 C         139.0128  139.7672  168.7473 C.2     1  UNL1        0.0946
     14 C         139.6954  140.2910  167.5187 C.2     1  UNL1        0.0046
     15 C         140.9790  140.9409  167.9430 C.3     1  UNL1        0.0888
     16 C         140.8910  144.4392  162.9540 C.3     1  UNL1        0.1503
     17 C         139.5798  143.7302  163.1216 C.3     1  UNL1        0.0598
     18 C         138.3067  144.3961  162.6907 C.3     1  UNL1        0.1443
     19 O         138.3446  145.7710  162.0924 O.3     1  UNL1       -0.3536
     20 C         139.6558  146.4800  161.9248 C.3     1  UNL1        0.1443
     21 C         140.9290  145.8142  162.3556 C.3     1  UNL1        0.0598
     22 C         143.8429  144.9660  163.0456 C.3     1  UNL1        0.1764
     23 S         142.3669  144.7026  162.9998 S.O2    1  UNL1       -0.0063
     24 O         142.5799  144.9812  164.1631 O.2     1  UNL1       -0.1727
     25 O         142.4641  144.4138  161.5311 O.2     1  UNL1       -0.1727
     26 N         142.5685  139.5494  162.4293 N.pl3   1  UNL1       -0.2880
     27 C         141.5288  138.9165  161.5528 C.3     1  UNL1        0.1242
     28 C         141.8929  137.7551  160.6761 C.3     1  UNL1        0.1636
     29 O         143.2968  137.2266  160.6760 O.3     1  UNL1       -0.3501
     30 C         144.3364  137.8596  161.5526 C.3     1  UNL1        0.1636
     31 C         143.9723  139.0210  162.4292 C.3     1  UNL1        0.1242
@<TRIPOS>BOND
     1    22    23    1
     2    23    24    2
     3    23    25    2
     4    23    16    1
     5    16     1    1
     6     1     2   ar
     7     2     3   ar
     8     3    26    1
     9    26    27    1
    10    27    28    1
    11    28    29    1
    12    29    30    1
    13    30    31    1
    14     3     4   ar
    15     4     5   ar
    16     5     7    1
    17     7     8    2
    18     8     9    1
    19     9    10    2
    20    10    11    1
    21    11    12    2
    22    12    13    1
    23    13    14    2
    24    14    15    1
    25     5     6   ar
    26    16    17    1
    27    17    18    1
    28    18    19    1
    29    19    20    1
    30    20    21    1
    31    21    16    1
    32     6     1   ar
    33    31    26    1
    34    15     7    1
    35    15    11    1
@<TRIPOS>MOLECULE
*****
 31 35 0 0 0
SMALL
GASTEIGER

@<TRIPOS>ATOM
      1 C         142.1219  140.4578  163.8188 C.ar    1  UNL1        0.0833
      2 C         141.3440  141.5540  163.1530 C.ar    1  UNL1        0.0507
      3 C         140.8119  142.6966  163.9662 C.ar    1  UNL1        0.1347
      4 N         141.0577  142.7431  165.4451 N.ar    1  UNL1       -0.2122
      5 C         141.8356  141.6469  166.1110 C.ar    1  UNL1        0.1600
      6 N         142.3677  140.5043  165.2978 N.ar    1  UNL1       -0.2295
      7 C         142.0813  141.6934  167.5900 C.2     1  UNL1        0.0230
      8 C         143.3677  142.2548  168.1193 C.2     1  UNL1       -0.0005
      9 C         143.6134  142.3013  169.5982 C.2     1  UNL1        0.0010
     10 C         142.5729  141.7864  170.5480 C.2     1  UNL1        0.0153
     11 C         141.2865  141.2250  170.0188 C.2     1  UNL1        0.0669
     12 N         140.0848  140.6483  170.7067 N.2     1  UNL1       -0.2478
     13 C         139.0963  140.2454  169.6529 C.2     1  UNL1        0.0946
     14 C         139.6871  140.5731  168.3136 C.2     1  UNL1        0.0046
     15 C         141.0408  141.1785  168.5398 C.3     1  UNL1        0.0888
     16 C         142.6540  139.3152  163.0057 C.3     1  UNL1        0.1503
     17 C         143.3840  140.4559  162.3609 C.3     1  UNL1        0.0598
     18 C         144.3284  140.1956  161.2250 C.3     1  UNL1        0.1443
     19 O         144.5428  138.7946  160.7338 O.3     1  UNL1       -0.3536
     20 C         143.8127  137.6539  161.3786 C.3     1  UNL1        0.1443
     21 C         142.8683  137.9142  162.5145 C.3     1  UNL1        0.0598
     22 C         140.8243  137.8273  164.8600 C.3     1  UNL1        0.1764
     23 S         141.7391  138.5713  163.9328 S.O2    1  UNL1       -0.0063
     24 O         142.4751  138.1693  164.8121 O.2     1  UNL1       -0.1727
     25 O         140.5746  138.8971  163.0454 O.2     1  UNL1       -0.1727
     26 N         140.0340  143.7928  163.3003 N.pl3   1  UNL1       -0.2880
     27 C         140.7555  144.9317  162.6428 C.3     1  UNL1        0.1242
     28 C         139.9777  146.0279  161.9770 C.3     1  UNL1        0.1636
     29 O         138.4783  145.9850  161.9686 O.3     1  UNL1       -0.3501
     30 C         137.7568  144.8461  162.6261 C.3     1  UNL1        0.1636
     31 C         138.5347  143.7500  163.2920 C.3     1  UNL1        0.1242
@<TRIPOS>BOND
     1    22    23    1
     2    23    24    2
     3    23    25    2
     4    23    16    1
     5    16     1    1
     6     1     2   ar
     7     2     3   ar
     8     3    26    1
     9    26    27    1
    10    27    28    1
    11    28    29    1
    12    29    30    1
    13    30    31    1
    14     3     4   ar
    15     4     5   ar
    16     5     7    1
    17     7     8    2
    18     8     9    1
    19     9    10    2
    20    10    11    1
    21    11    12    2
    22    12    13    1
    23    13    14    2
    24    14    15    1
    25     5     6   ar
    26    16    17    1
    27    17    18    1
    28    18    19    1
    29    19    20    1
    30    20    21    1
    31    21    16    1
    32     6     1   ar
    33    31    26    1
    34    15     7    1
    35    15    11    1
@<TRIPOS>MOLECULE
*****
 31 35 0 0 0
SMALL
GASTEIGER

@<TRIPOS>ATOM
      1 C         141.3040  140.2173  162.5710 C.ar    1  UNL1        0.0833
      2 C         141.0272  141.5132  161.8682 C.ar    1  UNL1        0.0507
      3 C         140.4911  142.6841  162.6375 C.ar    1  UNL1        0.1347
      4 N         140.2320  142.5590  164.1096 N.ar    1  UNL1       -0.2122
      5 C         140.5088  141.2630  164.8125 C.ar    1  UNL1        0.1600
      6 N         141.0448  140.0922  164.0432 N.ar    1  UNL1       -0.2295
      7 C         140.2496  141.1380  166.2846 C.2     1  UNL1        0.0230
      8 C         140.9999  142.0021  167.2543 C.2     1  UNL1       -0.0005
      9 C         140.7408  141.8771  168.7264 C.2     1  UNL1        0.0010
     10 C         139.7312  140.8879  169.2289 C.2     1  UNL1        0.0153
     11 C         138.9809  140.0238  168.2592 C.2     1  UNL1        0.0669
     12 N         137.9345  138.9675  168.4576 N.2     1  UNL1       -0.2478
     13 C         137.5470  138.4398  167.1080 C.2     1  UNL1        0.0946
     14 C         138.3539  139.1699  166.0756 C.2     1  UNL1        0.0046
     15 C         139.2401  140.1488  166.7870 C.3     1  UNL1        0.0888
     16 C         141.8400  139.0465  161.8017 C.3     1  UNL1        0.1503
     17 C         143.0139  139.9760  161.7127 C.3     1  UNL1        0.0598
     18 C         144.2514  139.5530  160.9781 C.3     1  UNL1        0.1443
     19 O         144.3150  138.2007  160.3325 O.3     1  UNL1       -0.3536
     20 C         143.1411  137.2711  160.4215 C.3     1  UNL1        0.1443
     21 C         141.9036  137.6940  161.1561 C.3     1  UNL1        0.0598
     22 C         139.1199  138.0006  162.5139 C.3     1  UNL1        0.1764
     23 S         140.4800  138.5235  162.1578 S.O2    1  UNL1       -0.0063
     24 O         139.7283  139.1372  161.4265 O.2     1  UNL1       -0.1727
     25 O         141.0971  137.6124  163.1771 O.2     1  UNL1       -0.1727
     26 N         140.2143  143.9800  161.9347 N.pl3   1  UNL1       -0.2880
     27 C         140.4663  144.1027  160.4611 C.3     1  UNL1        0.1242
     28 C         140.1895  145.3986  159.7582 C.3     1  UNL1        0.1636
     29 O         139.6607  146.5718  160.5291 O.3     1  UNL1       -0.3501
     30 C         139.4088  146.4491  162.0026 C.3     1  UNL1        0.1636
     31 C         139.6856  145.1532  162.7054 C.3     1  UNL1        0.1242
@<TRIPOS>BOND
     1    22    23    1
     2    23    24    2
     3    23    25    2
     4    23    16    1
     5    16     1    1
     6     1     2   ar
     7     2     3   ar
     8     3    26    1
     9    26    27    1
    10    27    28    1
    11    28    29    1
    12    29    30    1
    13    30    31    1
    14     3     4   ar
    15     4     5   ar
    16     5     7    1
    17     7     8    2
    18     8     9    1
    19     9    10    2
    20    10    11    1
    21    11    12    2
    22    12    13    1
    23    13    14    2
    24    14    15    1
    25     5     6   ar
    26    16    17    1
    27    17    18    1
    28    18    19    1
    29    19    20    1
    30    20    21    1
    31    21    16    1
    32     6     1   ar
    33    31    26    1
    34    15     7    1
    35    15    11    1
@<TRIPOS>MOLECULE
*****
 31 35 0 0 0
SMALL
GASTEIGER

@<TRIPOS>ATOM
      1 C         142.2768  140.3994  163.2413 C.ar    1  UNL1        0.0833
      2 C         141.7811  141.6266  162.5354 C.ar    1  UNL1        0.0507
      3 C         140.9519  142.6341  163.2754 C.ar    1  UNL1        0.1347
      4 N         140.6185  142.4144  164.7211 N.ar    1  UNL1       -0.2122
      5 C         141.1142  141.1871  165.4271 C.ar    1  UNL1        0.1600
      6 N         141.9433  140.1797  164.6872 N.ar    1  UNL1       -0.2295
      7 C         140.7806  140.9674  166.8730 C.2     1  UNL1        0.0230
      8 C         139.5153  140.2561  167.2511 C.2     1  UNL1       -0.0005
      9 C         139.1818  140.0364  168.6969 C.2     1  UNL1        0.0010
     10 C         140.1136  140.5280  169.7647 C.2     1  UNL1        0.0153
     11 C         141.3789  141.2393  169.3866 C.2     1  UNL1        0.0669
     12 N         142.4823  141.8319  170.2121 N.2     1  UNL1       -0.2478
     13 C         143.4977  142.4179  169.2763 C.2     1  UNL1        0.0946
     14 C         143.0220  142.1874  167.8726 C.2     1  UNL1        0.0046
     15 C         141.7125  141.4590  167.9407 C.3     1  UNL1        0.0888
     16 C         143.1060  139.3920  162.5014 C.3     1  UNL1        0.1503
     17 C         141.7516  139.0788  161.9380 C.3     1  UNL1        0.0598
     18 C         141.5967  137.9884  160.9196 C.3     1  UNL1        0.1443
     19 O         142.7962  137.2113  160.4646 O.3     1  UNL1       -0.3536
     20 C         144.1507  137.5245  161.0280 C.3     1  UNL1        0.1443
     21 C         144.3056  138.6148  162.0464 C.3     1  UNL1        0.0598
     22 C         145.2390  140.7181  164.1420 C.3     1  UNL1        0.1764
     23 S         144.1724  140.0550  163.3217 S.O2    1  UNL1       -0.0063
     24 O         144.4278  141.0710  162.7061 O.2     1  UNL1       -0.1727
     25 O         144.1136  138.9278  164.3096 O.2     1  UNL1       -0.1727
     26 N         140.4563  143.8612  162.5694 N.pl3   1  UNL1       -0.2880
     27 C         141.0589  144.2663  161.2569 C.3     1  UNL1        0.1242
     28 C         140.5632  145.4935  160.5509 C.3     1  UNL1        0.1636
     29 O         139.4649  146.3155  161.1576 O.3     1  UNL1       -0.3501
     30 C         138.8623  145.9104  162.4700 C.3     1  UNL1        0.1636
     31 C         139.3580  144.6833  163.1760 C.3     1  UNL1        0.1242
@<TRIPOS>BOND
     1    22    23    1
     2    23    24    2
     3    23    25    2
     4    23    16    1
     5    16     1    1
     6     1     2   ar
     7     2     3   ar
     8     3    26    1
     9    26    27    1
    10    27    28    1
    11    28    29    1
    12    29    30    1
    13    30    31    1
    14     3     4   ar
    15     4     5   ar
    16     5     7    1
    17     7     8    2
    18     8     9    1
    19     9    10    2
    20    10    11    1
    21    11    12    2
    22    12    13    1
    23    13    14    2
    24    14    15    1
    25     5     6   ar
    26    16    17    1
    27    17    18    1
    28    18    19    1
    29    19    20    1
    30    20    21    1
    31    21    16    1
    32     6     1   ar
    33    31    26    1
    34    15     7    1
    35    15    11    1
@<TRIPOS>MOLECULE
*****
 31 35 0 0 0
SMALL
GASTEIGER

@<TRIPOS>ATOM
      1 C         140.0470  139.9879  164.0527 C.ar    1  UNL1        0.0833
      2 C         140.9905  140.9717  163.4266 C.ar    1  UNL1        0.0507
      3 C         141.7846  141.9045  164.2923 C.ar    1  UNL1        0.1347
      4 N         141.6351  141.8535  165.7839 N.ar    1  UNL1       -0.2122
      5 C         140.6916  140.8696  166.4100 C.ar    1  UNL1        0.1600
      6 N         139.8975  139.9368  165.5444 N.ar    1  UNL1       -0.2295
      7 C         140.5422  140.8186  167.9017 C.2     1  UNL1        0.0230
      8 C         139.3152  140.2088  168.5121 C.2     1  UNL1       -0.0005
      9 C         139.1657  140.1579  170.0037 C.2     1  UNL1        0.0010
     10 C         140.2433  140.7167  170.8850 C.2     1  UNL1        0.0153
     11 C         141.4703  141.3265  170.2746 C.2     1  UNL1        0.0669
     12 N         142.6895  141.9524  170.8843 N.2     1  UNL1       -0.2478
     13 C         143.5924  142.3902  169.7694 C.2     1  UNL1        0.0946
     14 C         142.9313  142.0349  168.4707 C.2     1  UNL1        0.0046
     15 C         141.6197  141.3775  168.7829 C.3     1  UNL1        0.0888
     16 C         139.2529  139.0551  163.1871 C.3     1  UNL1        0.1503
     17 C         138.6177  140.3615  162.8133 C.3     1  UNL1        0.0598
     18 C         137.5048  140.3938  161.8081 C.3     1  UNL1        0.1443
     19 O         137.0271  139.1199  161.1767 O.3     1  UNL1       -0.3536
     20 C         137.6624  137.8135  161.5505 C.3     1  UNL1        0.1443
     21 C         138.7753  137.7810  162.5557 C.3     1  UNL1        0.0598
     22 C         141.0748  137.0900  164.5359 C.3     1  UNL1        0.1764
     23 S         140.1639  138.0726  163.8614 S.O2    1  UNL1       -0.0063
     24 O         139.5156  137.6723  164.8079 O.2     1  UNL1       -0.1727
     25 O         141.2160  138.3368  162.8255 O.2     1  UNL1       -0.1727
     26 N         142.7280  142.8883  163.6663 N.pl3   1  UNL1       -0.2880
     27 C         142.7811  144.3007  164.1687 C.3     1  UNL1        0.1242
     28 C         143.7246  145.2844  163.5426 C.3     1  UNL1        0.1636
     29 O         144.6150  144.8558  162.4141 O.3     1  UNL1       -0.3501
     30 C         144.5620  143.4435  161.9118 C.3     1  UNL1        0.1636
     31 C         143.6185  142.4597  162.5378 C.3     1  UNL1        0.1242
@<TRIPOS>BOND
     1    22    23    1
     2    23    24    2
     3    23    25    2
     4    23    16    1
     5    16     1    1
     6     1     2   ar
     7     2     3   ar
     8     3    26    1
     9    26    27    1
    10    27    28    1
    11    28    29    1
    12    29    30    1
    13    30    31    1
    14     3     4   ar
    15     4     5   ar
    16     5     7    1
    17     7     8    2
    18     8     9    1
    19     9    10    2
    20    10    11    1
    21    11    12    2
    22    12    13    1
    23    13    14    2
    24    14    15    1
    25     5     6   ar
    26    16    17    1
    27    17    18    1
    28    18    19    1
    29    19    20    1
    30    20    21    1
    31    21    16    1
    32     6     1   ar
    33    31    26    1
    34    15     7    1
    35    15    11    1
@<TRIPOS>MOLECULE
*****
 31 35 0 0 0
SMALL
GASTEIGER

@<TRIPOS>ATOM
      1 C         141.4845  142.9541  163.3665 C.ar    1  UNL1        0.0833
      2 C         141.7179  142.7255  164.8304 C.ar    1  UNL1        0.0507
      3 C         142.2437  141.4046  165.3087 C.ar    1  UNL1        0.1347
      4 N         142.5361  140.3124  164.3232 N.ar    1  UNL1       -0.2122
      5 C         142.3027  140.5410  162.8591 C.ar    1  UNL1        0.1600
      6 N         141.7769  141.8618  162.3807 N.ar    1  UNL1       -0.2295
      7 C         142.5951  139.4487  161.8735 C.2     1  UNL1        0.0230
      8 C         143.7636  138.5341  162.0923 C.2     1  UNL1       -0.0005
      9 C         144.0560  137.4419  161.1068 C.2     1  UNL1        0.0010
     10 C         143.1798  137.2641  159.9022 C.2     1  UNL1        0.0153
     11 C         142.0113  138.1788  159.6834 C.2     1  UNL1        0.0669
     12 N         140.9789  138.2458  158.5973 N.2     1  UNL1       -0.2478
     13 C         140.0484  139.3796  158.9116 C.2     1  UNL1        0.0946
     14 C         140.5058  140.0132  160.1920 C.2     1  UNL1        0.0046
     15 C         141.7189  139.2710  160.6690 C.3     1  UNL1        0.0888
     16 C         140.9587  144.2750  162.8881 C.3     1  UNL1        0.1503
     17 C         139.6773  143.5000  162.9734 C.3     1  UNL1        0.0598
     18 C         138.3785  144.1557  162.6084 C.3     1  UNL1        0.1443
     19 O         138.3611  145.5864  162.1581 O.3     1  UNL1       -0.3536
     20 C         139.6426  146.3614  162.0728 C.3     1  UNL1        0.1443
     21 C         140.9414  145.7057  162.4378 C.3     1  UNL1        0.0598
     22 C         143.8868  144.9076  163.0497 C.3     1  UNL1        0.1764
     23 S         142.4227  144.5913  162.9689 S.O2    1  UNL1       -0.0063
     24 O         142.6046  144.8435  164.1435 O.2     1  UNL1       -0.1727
     25 O         142.5565  144.3492  161.4946 O.2     1  UNL1       -0.1727
     26 N         142.4772  141.1760  166.7727 N.pl3   1  UNL1       -0.2880
     27 C         142.2119  139.8271  167.3729 C.3     1  UNL1        0.1242
     28 C         142.4453  139.5985  168.8368 C.3     1  UNL1        0.1636
     29 O         142.9440  140.7189  169.7007 O.3     1  UNL1       -0.3501
     30 C         143.2093  142.0677  169.1005 C.3     1  UNL1        0.1636
     31 C         142.9758  142.2963  167.6366 C.3     1  UNL1        0.1242
@<TRIPOS>BOND
     1    22    23    1
     2    23    24    2
     3    23    25    2
     4    23    16    1
     5    16     1    1
     6     1     2   ar
     7     2     3   ar
     8     3    26    1
     9    26    27    1
    10    27    28    1
    11    28    29    1
    12    29    30    1
    13    30    31    1
    14     3     4   ar
    15     4     5   ar
    16     5     7    1
    17     7     8    2
    18     8     9    1
    19     9    10    2
    20    10    11    1
    21    11    12    2
    22    12    13    1
    23    13    14    2
    24    14    15    1
    25     5     6   ar
    26    16    17    1
    27    17    18    1
    28    18    19    1
    29    19    20    1
    30    20    21    1
    31    21    16    1
    32     6     1   ar
    33    31    26    1
    34    15     7    1
    35    15    11    1
@<TRIPOS>MOLECULE
*****
 31 35 0 0 0
SMALL
GASTEIGER

@<TRIPOS>ATOM
      1 C         140.5621  142.7702  163.9184 C.ar    1  UNL1        0.0833
      2 C         141.1190  141.6789  163.0530 C.ar    1  UNL1        0.0507
      3 C         141.9591  140.5949  163.6607 C.ar    1  UNL1        0.1347
      4 N         142.2424  140.6023  165.1336 N.ar    1  UNL1       -0.2122
      5 C         141.6855  141.6937  165.9991 C.ar    1  UNL1        0.1600
      6 N         140.8454  142.7776  165.3915 N.ar    1  UNL1       -0.2295
      7 C         141.9688  141.7010  167.4721 C.2     1  UNL1        0.0230
      8 C         143.2651  142.2560  167.9837 C.2     1  UNL1       -0.0005
      9 C         143.5484  142.2634  169.4566 C.2     1  UNL1        0.0010
     10 C         142.5355  141.7157  170.4180 C.2     1  UNL1        0.0153
     11 C         141.2393  141.1608  169.9064 C.2     1  UNL1        0.0669
     12 N         140.0589  140.5576  170.6085 N.2     1  UNL1       -0.2478
     13 C         139.0461  140.1775  169.5694 C.2     1  UNL1        0.0946
     14 C         139.6005  140.5457  168.2251 C.2     1  UNL1        0.0046
     15 C         140.9559  141.1534  168.4334 C.3     1  UNL1        0.0888
     16 C         139.7220  143.8542  163.3109 C.3     1  UNL1        0.1503
     17 C         141.0876  144.4437  163.1172 C.3     1  UNL1        0.0598
     18 C         141.2402  145.7817  162.4566 C.3     1  UNL1        0.1443
     19 O         140.0271  146.5302  161.9895 O.3     1  UNL1       -0.3536
     20 C         138.6615  145.9406  162.1831 C.3     1  UNL1        0.1443
     21 C         138.5089  144.6027  162.8438 C.3     1  UNL1        0.0598
     22 C         137.5742  141.9223  164.1201 C.3     1  UNL1        0.1764
     23 S         138.6481  142.8883  163.7154 S.O2    1  UNL1       -0.0063
     24 O         138.4821  143.1118  164.8982 O.2     1  UNL1       -0.1727
     25 O         138.5915  142.3629  162.3116 O.2     1  UNL1       -0.1727
     26 N         142.5159  139.5036  162.7953 N.pl3   1  UNL1       -0.2880
     27 C         143.9849  139.2011  162.8219 C.3     1  UNL1        0.1242
     28 C         144.5417  138.1098  161.9565 C.3     1  UNL1        0.1636
     29 O         143.6295  137.3209  161.0645 O.3     1  UNL1       -0.3501
     30 C         142.1606  137.6233  161.0380 C.3     1  UNL1        0.1636
     31 C         141.6038  138.7147  161.9034 C.3     1  UNL1        0.1242
@<TRIPOS>BOND
     1    22    23    1
     2    23    24    2
     3    23    25    2
     4    23    16    1
     5    16     1    1
     6     1     2   ar
     7     2     3   ar
     8     3    26    1
     9    26    27    1
    10    27    28    1
    11    28    29    1
    12    29    30    1
    13    30    31    1
    14     3     4   ar
    15     4     5   ar
    16     5     7    1
    17     7     8    2
    18     8     9    1
    19     9    10    2
    20    10    11    1
    21    11    12    2
    22    12    13    1
    23    13    14    2
    24    14    15    1
    25     5     6   ar
    26    16    17    1
    27    17    18    1
    28    18    19    1
    29    19    20    1
    30    20    21    1
    31    21    16    1
    32     6     1   ar
    33    31    26    1
    34    15     7    1
    35    15    11    1
@<TRIPOS>MOLECULE
*****
 31 35 0 0 0
SMALL
GASTEIGER

@<TRIPOS>ATOM
      1 C         141.5351  142.6080  162.6172 C.ar    1  UNL1        0.0833
      2 C         141.8183  141.7526  161.4180 C.ar    1  UNL1        0.0507
      3 C         142.3136  140.3482  161.5986 C.ar    1  UNL1        0.1347
      4 N         142.5256  139.7994  162.9783 N.ar    1  UNL1       -0.2122
      5 C         142.2424  140.6548  164.1776 C.ar    1  UNL1        0.1600
      6 N         141.7472  142.0591  163.9970 N.ar    1  UNL1       -0.2295
      7 C         142.4545  140.1059  165.5573 C.2     1  UNL1        0.0230
      8 C         143.2544  138.8519  165.7508 C.2     1  UNL1       -0.0005
      9 C         143.4665  138.3030  167.1305 C.2     1  UNL1        0.0010
     10 C         142.8786  139.0081  168.3168 C.2     1  UNL1        0.0153
     11 C         142.0787  140.2621  168.1233 C.2     1  UNL1        0.0669
     12 N         141.3822  141.1683  169.0948 N.2     1  UNL1       -0.2478
     13 C         140.7397  142.2772  168.3155 C.2     1  UNL1        0.0946
     14 C         141.0391  142.0565  166.8623 C.2     1  UNL1        0.0046
     15 C         141.8666  140.8111  166.7436 C.3     1  UNL1        0.0888
     16 C         141.0399  144.0123  162.4366 C.3     1  UNL1        0.1503
     17 C         139.7404  143.2665  162.3644 C.3     1  UNL1        0.0598
     18 C         138.4567  144.0148  162.1584 C.3     1  UNL1        0.1443
     19 O         138.4725  145.5086  162.0247 O.3     1  UNL1       -0.3536
     20 C         139.7720  146.2544  162.0969 C.3     1  UNL1        0.1443
     21 C         141.0557  145.5063  162.3029 C.3     1  UNL1        0.0598
     22 C         143.9828  144.5285  162.7065 C.3     1  UNL1        0.1764
     23 S         142.5113  144.2704  162.5715 S.O2    1  UNL1       -0.0063
     24 O         142.7025  144.2613  163.7714 O.2     1  UNL1       -0.1727
     25 O         142.6350  144.3463  161.0786 O.2     1  UNL1       -0.1727
     26 N         142.5968  139.4928  160.3994 N.pl3   1  UNL1       -0.2880
     27 C         142.8446  140.1308  159.0647 C.3     1  UNL1        0.1242
     28 C         143.1278  139.2754  157.8655 C.3     1  UNL1        0.1636
     29 O         143.1631  137.7819  158.0011 O.3     1  UNL1       -0.3501
     30 C         142.9153  137.1440  159.3358 C.3     1  UNL1        0.1636
     31 C         142.6321  137.9994  160.5350 C.3     1  UNL1        0.1242
@<TRIPOS>BOND
     1    22    23    1
     2    23    24    2
     3    23    25    2
     4    23    16    1
     5    16     1    1
     6     1     2   ar
     7     2     3   ar
     8     3    26    1
     9    26    27    1
    10    27    28    1
    11    28    29    1
    12    29    30    1
    13    30    31    1
    14     3     4   ar
    15     4     5   ar
    16     5     7    1
    17     7     8    2
    18     8     9    1
    19     9    10    2
    20    10    11    1
    21    11    12    2
    22    12    13    1
    23    13    14    2
    24    14    15    1
    25     5     6   ar
    26    16    17    1
    27    17    18    1
    28    18    19    1
    29    19    20    1
    30    20    21    1
    31    21    16    1
    32     6     1   ar
    33    31    26    1
    34    15     7    1
    35    15    11    1
