@<TRIPOS>MOLECULE
*****
 31 35 0 0 0
SMALL
GASTEIGER

@<TRIPOS>ATOM
      1 C         139.8747  139.7032  164.8795 C.ar    1  UNL1        0.0505
      2 C         138.6666  138.9901  165.4104 C.ar    1  UNL1        0.0178
      3 C         138.3550  139.0323  166.8771 C.ar    1  UNL1        0.0379
      4 C         139.2514  139.7877  167.8129 C.ar    1  UNL1        0.1364
      5 C         140.4595  140.5010  167.2820 C.ar    1  UNL1        0.0367
      6 C         140.7712  140.4587  165.8153 C.ar    1  UNL1        0.0153
      7 C         141.3559  141.2564  168.2177 C.3     1  UNL1        0.1537
      8 C         142.3392  142.0482  169.0278 C.3     1  UNL1        0.2350
      9 O         143.3838  142.5842  168.0943 O.2     1  UNL1       -0.4478
     10 C         143.0462  142.1237  166.7072 C.2     1  UNL1        0.2770
     11 N         143.8251  142.4300  165.4624 N.pl3   1  UNL1       -0.3133
     12 N         141.7929  141.3031  166.7835 N.2     1  UNL1       -0.2204
     13 C         141.0443  141.2987  169.6844 C.3     1  UNL1        0.0666
     14 C         141.3820  141.7592  171.0714 C.3     1  UNL1        0.0061
     15 C         142.2594  142.1466  169.9181 C.3     1  UNL1        0.0061
     16 C         139.8363  140.5855  170.2153 C.3     1  UNL1        0.2074
     17 O         138.9398  139.8300  169.2795 O.3     1  UNL1       -0.4756
     18 H         144.6395  142.9806  165.5144 H       1  UNL1        0.1466
     19 H         143.5218  142.0804  164.5935 H       1  UNL1        0.1466
     20 C         140.6704  138.3875  162.7854 C.2     1  UNL1        0.2669
     21 O         140.8429  137.1562  163.6245 O.2     1  UNL1       -0.2682
     22 N         140.1863  139.6610  163.4129 N.am    1  UNL1       -0.2792
     23 H         140.0731  140.4691  162.8621 H       1  UNL1        0.1552
     24 C         143.5070  138.0661  161.8632 C.3     1  UNL1        0.0328
     25 C         142.4003  138.1845  160.8576 C.ar    1  UNL1        0.0012
     26 C         142.7119  138.1423  159.3910 C.ar    1  UNL1        0.0103
     27 C         141.6053  138.2608  158.3854 C.ar    1  UNL1        0.0765
     28 CL        141.9169  138.2185  156.9187 Cl      1  UNL1       -0.0806
     29 C         140.1869  138.4215  158.8464 C.ar    1  UNL1        0.1103
     30 N         139.8753  138.4637  160.3131 N.ar    1  UNL1       -0.2387
     31 C         140.9820  138.3453  161.3187 C.ar    1  UNL1        0.1308
@<TRIPOS>BOND
     1    24    25    1
     2    25    26   ar
     3    26    27   ar
     4    27    28    1
     5    27    29   ar
     6    29    30   ar
     7    30    31   ar
     8    31    20    1
     9    20    21    2
    10    20    22   am
    11    22     1    1
    12     1     2   ar
    13     2     3   ar
    14     3     4   ar
    15     4     5   ar
    16     5     6   ar
    17     5     7    1
    18     7     8    1
    19     8     9    1
    20     9    10    1
    21    10    11    1
    22    10    12    2
    23     7    13    1
    24    13    14    1
    25    14    15    1
    26    13    16    1
    27    16    17    1
    28    31    25   ar
    29     6     1   ar
    30    12     7    1
    31    15    13    1
    32    17     4    1
    33    22    23    1
    34    11    18    1
    35    11    19    1
@<TRIPOS>MOLECULE
*****
 31 35 0 0 0
SMALL
GASTEIGER

@<TRIPOS>ATOM
      1 C         139.2694  140.0946  165.1056 C.ar    1  UNL1        0.0505
      2 C         138.1836  139.3090  165.7793 C.ar    1  UNL1        0.0178
      3 C         138.1747  139.1701  167.2728 C.ar    1  UNL1        0.0379
      4 C         139.2515  139.8168  168.0927 C.ar    1  UNL1        0.1364
      5 C         140.3374  140.6024  167.4190 C.ar    1  UNL1        0.0367
      6 C         140.3463  140.7413  165.9255 C.ar    1  UNL1        0.0153
      7 C         141.4142  141.2491  168.2389 C.3     1  UNL1        0.1537
      8 C         142.5512  141.9480  168.9234 C.3     1  UNL1        0.2350
      9 O         143.3934  142.6046  167.8700 O.2     1  UNL1       -0.4478
     10 C         142.7768  142.3114  166.5343 C.2     1  UNL1        0.2770
     11 N         143.2928  142.7747  165.2043 N.pl3   1  UNL1       -0.3133
     12 N         141.5536  141.4737  166.7623 N.2     1  UNL1       -0.2204
     13 C         141.4052  141.1101  169.7324 C.3     1  UNL1        0.0666
     14 C         142.0218  141.4033  171.0680 C.3     1  UNL1        0.0061
     15 C         142.6539  141.9371  169.8168 C.3     1  UNL1        0.0061
     16 C         140.3195  140.3246  170.4060 C.3     1  UNL1        0.2074
     17 O         139.2426  139.6778  169.5862 O.3     1  UNL1       -0.4756
     18 H         144.1085  143.3240  165.1569 H       1  UNL1        0.1466
     19 H         142.8159  142.5294  164.3787 H       1  UNL1        0.1466
     20 C         138.3456  141.1990  162.9430 C.2     1  UNL1        0.2669
     21 O         137.4037  142.0256  163.7675 O.2     1  UNL1       -0.2682
     22 N         139.2784  140.2335  163.6121 N.am    1  UNL1       -0.2792
     23 H         139.8965  139.6910  163.0709 H       1  UNL1        0.1552
     24 C         139.4005  143.7053  161.6760 C.3     1  UNL1        0.0328
     25 C         138.8820  142.5910  160.8160 C.ar    1  UNL1        0.0012
     26 C         138.8909  142.7300  159.3225 C.ar    1  UNL1        0.0103
     27 C         138.3724  141.6158  158.4625 C.ar    1  UNL1        0.0765
     28 CL        138.3814  141.7547  156.9689 Cl      1  UNL1       -0.0806
     29 C         137.8449  140.3626  159.0960 C.ar    1  UNL1        0.1103
     30 N         137.8360  140.2236  160.5895 N.ar    1  UNL1       -0.2387
     31 C         138.3545  141.3379  161.4495 C.ar    1  UNL1        0.1308
@<TRIPOS>BOND
     1    24    25    1
     2    25    26   ar
     3    26    27   ar
     4    27    28    1
     5    27    29   ar
     6    29    30   ar
     7    30    31   ar
     8    31    20    1
     9    20    21    2
    10    20    22   am
    11    22     1    1
    12     1     2   ar
    13     2     3   ar
    14     3     4   ar
    15     4     5   ar
    16     5     6   ar
    17     5     7    1
    18     7     8    1
    19     8     9    1
    20     9    10    1
    21    10    11    1
    22    10    12    2
    23     7    13    1
    24    13    14    1
    25    14    15    1
    26    13    16    1
    27    16    17    1
    28    31    25   ar
    29     6     1   ar
    30    12     7    1
    31    15    13    1
    32    17     4    1
    33    22    23    1
    34    11    18    1
    35    11    19    1
@<TRIPOS>MOLECULE
*****
 31 35 0 0 0
SMALL
GASTEIGER

@<TRIPOS>ATOM
      1 C         141.9366  141.4553  164.5996 C.ar    1  UNL1        0.0505
      2 C         143.1808  142.2828  164.7294 C.ar    1  UNL1        0.0178
      3 C         143.6867  142.6686  166.0879 C.ar    1  UNL1        0.0379
      4 C         142.9482  142.2268  167.3164 C.ar    1  UNL1        0.1364
      5 C         141.7038  141.3993  167.1866 C.ar    1  UNL1        0.0367
      6 C         141.1980  141.0135  165.8282 C.ar    1  UNL1        0.0153
      7 C         140.9653  140.9575  168.4152 C.3     1  UNL1        0.1537
      8 C         140.1253  140.4449  169.5472 C.3     1  UNL1        0.2350
      9 O         138.9834  139.6679  168.9622 O.2     1  UNL1       -0.4478
     10 C         139.1177  139.7002  167.4685 C.2     1  UNL1        0.2770
     11 N         138.1900  139.0497  166.4856 N.pl3   1  UNL1       -0.3133
     12 N         140.3426  140.4972  167.1305 N.2     1  UNL1       -0.2204
     13 C         141.4712  141.3432  169.7736 C.3     1  UNL1        0.0666
     14 C         141.3368  141.3109  171.2672 C.3     1  UNL1        0.0061
     15 C         140.3264  140.6104  170.4080 C.3     1  UNL1        0.0061
     16 C         142.7154  142.1708  169.9035 C.3     1  UNL1        0.2074
     17 O         143.4540  142.6126  168.6749 O.3     1  UNL1       -0.4756
     18 H         137.4081  138.5449  166.8065 H       1  UNL1        0.1466
     19 H         138.3631  139.1276  165.5195 H       1  UNL1        0.1466
     20 C         141.7592  139.7204  162.6738 C.2     1  UNL1        0.2669
     21 O         142.5936  138.7570  163.4649 O.2     1  UNL1       -0.2682
     22 N         141.4307  141.0696  163.2411 N.am    1  UNL1       -0.2792
     23 H         140.8832  141.7019  162.7219 H       1  UNL1        0.1552
     24 C         139.1032  138.3538  162.3945 C.3     1  UNL1        0.0328
     25 C         139.9254  138.6514  161.1757 C.ar    1  UNL1        0.0012
     26 C         139.4196  138.2657  159.8173 C.ar    1  UNL1        0.0103
     27 C         140.2418  138.5632  158.5985 C.ar    1  UNL1        0.0765
     28 CL        139.7360  138.1774  157.2400 Cl      1  UNL1       -0.0806
     29 C         141.5699  139.2465  158.7381 C.ar    1  UNL1        0.1103
     30 N         142.0757  139.6323  160.0965 N.ar    1  UNL1       -0.2387
     31 C         141.2534  139.3347  161.3153 C.ar    1  UNL1        0.1308
@<TRIPOS>BOND
     1    24    25    1
     2    25    26   ar
     3    26    27   ar
     4    27    28    1
     5    27    29   ar
     6    29    30   ar
     7    30    31   ar
     8    31    20    1
     9    20    21    2
    10    20    22   am
    11    22     1    1
    12     1     2   ar
    13     2     3   ar
    14     3     4   ar
    15     4     5   ar
    16     5     6   ar
    17     5     7    1
    18     7     8    1
    19     8     9    1
    20     9    10    1
    21    10    11    1
    22    10    12    2
    23     7    13    1
    24    13    14    1
    25    14    15    1
    26    13    16    1
    27    16    17    1
    28    31    25   ar
    29     6     1   ar
    30    12     7    1
    31    15    13    1
    32    17     4    1
    33    22    23    1
    34    11    18    1
    35    11    19    1
@<TRIPOS>MOLECULE
*****
 31 35 0 0 0
SMALL
GASTEIGER

@<TRIPOS>ATOM
      1 C         143.4362  142.5602  163.2244 C.ar    1  UNL1        0.0505
      2 C         144.5195  141.8906  162.4319 C.ar    1  UNL1        0.0178
      3 C         144.5991  142.0955  160.9481 C.ar    1  UNL1        0.0379
      4 C         143.5955  142.9699  160.2568 C.ar    1  UNL1        0.1364
      5 C         142.5121  143.6395  161.0493 C.ar    1  UNL1        0.0367
      6 C         142.4324  143.4347  162.5331 C.ar    1  UNL1        0.0153
      7 C         141.5084  144.5139  160.3579 C.3     1  UNL1        0.1537
      8 C         140.4400  145.4116  159.8078 C.3     1  UNL1        0.2350
      9 O         139.5746  145.8559  160.9495 O.2     1  UNL1       -0.4478
     10 C         140.1081  145.2327  162.2054 C.2     1  UNL1        0.2770
     11 N         139.5452  145.4082  163.5847 N.pl3   1  UNL1       -0.3133
     12 N         141.3032  144.4034  161.8397 N.2     1  UNL1       -0.2204
     13 C         141.5880  144.7188  158.8741 C.3     1  UNL1        0.0666
     14 C         141.0545  145.3419  157.6184 C.3     1  UNL1        0.0061
     15 C         140.3831  145.6102  158.9325 C.3     1  UNL1        0.0061
     16 C         142.6713  144.0492  158.0816 C.3     1  UNL1        0.2074
     17 O         143.6751  143.1747  158.7730 O.3     1  UNL1       -0.4756
     18 H         138.7533  145.9760  163.7246 H       1  UNL1        0.1466
     19 H         139.9678  144.9555  164.3500 H       1  UNL1        0.1466
     20 C         142.2879  141.4768  165.2878 C.2     1  UNL1        0.2669
     21 O         141.2988  140.8029  164.3835 O.2     1  UNL1       -0.2682
     22 N         143.3566  142.3554  164.7082 N.am    1  UNL1       -0.2792
     23 H         144.0058  142.7976  165.3017 H       1  UNL1        0.1552
     24 C         143.1422  138.8640  166.4893 C.3     1  UNL1        0.0328
     25 C         142.6354  139.9656  167.3723 C.ar    1  UNL1        0.0012
     26 C         142.5558  139.7607  168.8561 C.ar    1  UNL1        0.0103
     27 C         142.0490  140.8622  169.7392 C.ar    1  UNL1        0.0765
     28 CL        141.9694  140.6574  171.2230 Cl      1  UNL1       -0.0806
     29 C         141.6218  142.1686  169.1384 C.ar    1  UNL1        0.1103
     30 N         141.7015  142.3735  167.6546 N.ar    1  UNL1       -0.2387
     31 C         142.2083  141.2719  166.7716 C.ar    1  UNL1        0.1308
@<TRIPOS>BOND
     1    24    25    1
     2    25    26   ar
     3    26    27   ar
     4    27    28    1
     5    27    29   ar
     6    29    30   ar
     7    30    31   ar
     8    31    20    1
     9    20    21    2
    10    20    22   am
    11    22     1    1
    12     1     2   ar
    13     2     3   ar
    14     3     4   ar
    15     4     5   ar
    16     5     6   ar
    17     5     7    1
    18     7     8    1
    19     8     9    1
    20     9    10    1
    21    10    11    1
    22    10    12    2
    23     7    13    1
    24    13    14    1
    25    14    15    1
    26    13    16    1
    27    16    17    1
    28    31    25   ar
    29     6     1   ar
    30    12     7    1
    31    15    13    1
    32    17     4    1
    33    22    23    1
    34    11    18    1
    35    11    19    1
@<TRIPOS>MOLECULE
*****
 31 35 0 0 0
SMALL
GASTEIGER

@<TRIPOS>ATOM
      1 C         138.4022  141.7518  161.2271 C.ar    1  UNL1        0.0505
      2 C         137.8921  140.3701  160.9433 C.ar    1  UNL1        0.0178
      3 C         137.8909  139.3335  162.0276 C.ar    1  UNL1        0.0379
      4 C         138.3998  139.6787  163.3957 C.ar    1  UNL1        0.1364
      5 C         138.9100  141.0605  163.6796 C.ar    1  UNL1        0.0367
      6 C         138.9112  142.0970  162.5953 C.ar    1  UNL1        0.0153
      7 C         139.4189  141.4057  165.0477 C.3     1  UNL1        0.1537
      8 C         139.9559  141.8950  166.3600 C.3     1  UNL1        0.2350
      9 O         140.3505  143.3324  166.1925 O.2     1  UNL1       -0.4478
     10 C         140.0573  143.7315  164.7765 C.2     1  UNL1        0.2770
     11 N         140.2978  145.0840  164.1740 N.pl3   1  UNL1       -0.3133
     12 N         139.4816  142.5408  164.0691 N.2     1  UNL1       -0.2204
     13 C         139.4177  140.3692  166.1320 C.3     1  UNL1        0.0666
     14 C         139.7108  139.9701  167.5479 C.3     1  UNL1        0.0061
     15 C         140.0060  141.3663  167.0858 C.3     1  UNL1        0.0061
     16 C         138.9075  138.9875  165.8482 C.3     1  UNL1        0.2074
     17 O         138.3986  138.6422  164.4800 O.3     1  UNL1       -0.4756
     18 H         140.6819  145.8059  164.7222 H       1  UNL1        0.1466
     19 H         140.0714  145.2497  163.2303 H       1  UNL1        0.1466
     20 C         139.5227  142.8286  159.1451 C.2     1  UNL1        0.2669
     21 O         140.6409  141.8324  159.2316 O.2     1  UNL1       -0.2682
     22 N         138.4034  142.7883  160.1429 N.am    1  UNL1       -0.2792
     23 H         137.6696  143.4421  160.0861 H       1  UNL1        0.1552
     24 C         141.0012  145.4092  159.5386 C.3     1  UNL1        0.0328
     25 C         140.2631  145.1554  158.2575 C.ar    1  UNL1        0.0012
     26 C         140.2644  146.1919  157.1733 C.ar    1  UNL1        0.0103
     27 C         139.5264  145.9381  155.8923 C.ar    1  UNL1        0.0765
     28 CL        139.5276  146.9746  154.8080 Cl      1  UNL1       -0.0806
     29 C         138.7871  144.6478  155.6956 C.ar    1  UNL1        0.1103
     30 N         138.7859  143.6113  156.7798 N.ar    1  UNL1       -0.2387
     31 C         139.5239  143.8651  158.0609 C.ar    1  UNL1        0.1308
@<TRIPOS>BOND
     1    24    25    1
     2    25    26   ar
     3    26    27   ar
     4    27    28    1
     5    27    29   ar
     6    29    30   ar
     7    30    31   ar
     8    31    20    1
     9    20    21    2
    10    20    22   am
    11    22     1    1
    12     1     2   ar
    13     2     3   ar
    14     3     4   ar
    15     4     5   ar
    16     5     6   ar
    17     5     7    1
    18     7     8    1
    19     8     9    1
    20     9    10    1
    21    10    11    1
    22    10    12    2
    23     7    13    1
    24    13    14    1
    25    14    15    1
    26    13    16    1
    27    16    17    1
    28    31    25   ar
    29     6     1   ar
    30    12     7    1
    31    15    13    1
    32    17     4    1
    33    22    23    1
    34    11    18    1
    35    11    19    1
@<TRIPOS>MOLECULE
*****
 31 35 0 0 0
SMALL
GASTEIGER

@<TRIPOS>ATOM
      1 C         140.6782  145.0777  161.6105 C.ar    1  UNL1        0.0505
      2 C         139.3760  145.4128  162.2751 C.ar    1  UNL1        0.0178
      3 C         139.1058  144.9448  163.6744 C.ar    1  UNL1        0.0379
      4 C         140.1378  144.1417  164.4091 C.ar    1  UNL1        0.1364
      5 C         141.4402  143.8065  163.7444 C.ar    1  UNL1        0.0367
      6 C         141.7104  144.2745  162.3452 C.ar    1  UNL1        0.0153
      7 C         142.4723  143.0034  164.4791 C.3     1  UNL1        0.1537
      8 C         143.5936  142.2126  165.0851 C.3     1  UNL1        0.2350
      9 O         144.6962  142.1207  164.0723 O.2     1  UNL1       -0.4478
     10 C         144.2563  142.8546  162.8403 C.2     1  UNL1        0.2770
     11 N         145.0513  143.0149  161.5784 N.pl3   1  UNL1       -0.3133
     12 N         142.8819  143.4001  163.0917 N.2     1  UNL1       -0.2204
     13 C         142.2021  142.5353  165.8783 C.3     1  UNL1        0.0666
     14 C         142.6420  141.8014  167.1103 C.3     1  UNL1        0.0061
     15 C         143.5498  141.8781  165.9188 C.3     1  UNL1        0.0061
     16 C         140.8998  142.8705  166.5430 C.3     1  UNL1        0.2074
     17 O         139.8677  143.6737  165.8083 O.3     1  UNL1       -0.4756
     18 H         145.9496  142.6180  161.5088 H       1  UNL1        0.1466
     19 H         144.6748  143.5169  160.8198 H       1  UNL1        0.1466
     20 C         140.2471  144.8971  159.0549 C.2     1  UNL1        0.2669
     21 O         139.2755  143.7803  159.2977 O.2     1  UNL1       -0.2682
     22 N         140.9484  145.5458  160.2112 N.am    1  UNL1       -0.2792
     23 H         141.5861  146.2787  160.0518 H       1  UNL1        0.1552
     24 C         142.5210  143.7193  157.4920 C.3     1  UNL1        0.0328
     25 C         141.6542  144.7763  156.8742 C.ar    1  UNL1        0.0012
     26 C         141.9243  145.2443  155.4749 C.ar    1  UNL1        0.0103
     27 C         141.0576  146.3011  154.8571 C.ar    1  UNL1        0.0765
     28 CL        141.3278  146.7692  153.4578 Cl      1  UNL1       -0.0806
     29 C         139.9206  146.8900  155.6385 C.ar    1  UNL1        0.1103
     30 N         139.6504  146.4220  157.0377 N.ar    1  UNL1       -0.2387
     31 C         140.5172  145.3651  157.6556 C.ar    1  UNL1        0.1308
@<TRIPOS>BOND
     1    24    25    1
     2    25    26   ar
     3    26    27   ar
     4    27    28    1
     5    27    29   ar
     6    29    30   ar
     7    30    31   ar
     8    31    20    1
     9    20    21    2
    10    20    22   am
    11    22     1    1
    12     1     2   ar
    13     2     3   ar
    14     3     4   ar
    15     4     5   ar
    16     5     6   ar
    17     5     7    1
    18     7     8    1
    19     8     9    1
    20     9    10    1
    21    10    11    1
    22    10    12    2
    23     7    13    1
    24    13    14    1
    25    14    15    1
    26    13    16    1
    27    16    17    1
    28    31    25   ar
    29     6     1   ar
    30    12     7    1
    31    15    13    1
    32    17     4    1
    33    22    23    1
    34    11    18    1
    35    11    19    1
@<TRIPOS>MOLECULE
*****
 31 35 0 0 0
SMALL
GASTEIGER

@<TRIPOS>ATOM
      1 C         138.6117  141.6856  163.2596 C.ar    1  UNL1        0.0505
      2 C         137.8726  140.5053  162.7026 C.ar    1  UNL1        0.0178
      3 C         137.7083  140.3551  161.2192 C.ar    1  UNL1        0.0379
      4 C         138.2833  141.3852  160.2928 C.ar    1  UNL1        0.1364
      5 C         139.0225  142.5656  160.8499 C.ar    1  UNL1        0.0367
      6 C         139.1867  142.7158  162.3333 C.ar    1  UNL1        0.0153
      7 C         139.5975  143.5958  159.9235 C.3     1  UNL1        0.1537
      8 C         140.2238  144.7006  159.1254 C.3     1  UNL1        0.2350
      9 O         140.8536  145.6662  160.0851 O.2     1  UNL1       -0.4478
     10 C         140.6164  145.1582  161.4764 C.2     1  UNL1        0.2770
     11 N         141.0750  145.8145  162.7448 N.pl3   1  UNL1       -0.3133
     12 N         139.8401  143.8786  161.3765 N.2     1  UNL1       -0.2204
     13 C         139.4333  143.4456  158.4401 C.3     1  UNL1        0.0666
     14 C         139.6704  143.9536  157.0489 C.3     1  UNL1        0.0061
     15 C         140.1920  144.7218  158.2269 C.3     1  UNL1        0.0061
     16 C         138.6941  142.2652  157.8831 C.3     1  UNL1        0.2074
     17 O         138.1191  141.2350  158.8094 O.3     1  UNL1       -0.4756
     18 H         141.5816  146.6578  162.7074 H       1  UNL1        0.1466
     19 H         140.8695  145.4019  163.6147 H       1  UNL1        0.1466
     20 C         139.9833  141.2645  165.4256 C.2     1  UNL1        0.2669
     21 O         141.0265  140.5430  164.6248 O.2     1  UNL1       -0.2682
     22 N         138.7759  141.8358  164.7430 N.am    1  UNL1       -0.2792
     23 H         138.0913  142.3093  165.2686 H       1  UNL1        0.1552
     24 C         138.7611  139.2493  167.2817 C.3     1  UNL1        0.0328
     25 C         139.5364  140.4072  167.8371 C.ar    1  UNL1        0.0012
     26 C         139.7007  140.5574  169.3205 C.ar    1  UNL1        0.0103
     27 C         140.4759  141.7151  169.8758 C.ar    1  UNL1        0.0765
     28 CL        140.6401  141.8653  171.3592 Cl      1  UNL1       -0.0806
     29 C         141.0870  142.7228  168.9477 C.ar    1  UNL1        0.1103
     30 N         140.9228  142.5726  167.4643 N.ar    1  UNL1       -0.2387
     31 C         140.1475  141.4147  166.9090 C.ar    1  UNL1        0.1308
@<TRIPOS>BOND
     1    24    25    1
     2    25    26   ar
     3    26    27   ar
     4    27    28    1
     5    27    29   ar
     6    29    30   ar
     7    30    31   ar
     8    31    20    1
     9    20    21    2
    10    20    22   am
    11    22     1    1
    12     1     2   ar
    13     2     3   ar
    14     3     4   ar
    15     4     5   ar
    16     5     6   ar
    17     5     7    1
    18     7     8    1
    19     8     9    1
    20     9    10    1
    21    10    11    1
    22    10    12    2
    23     7    13    1
    24    13    14    1
    25    14    15    1
    26    13    16    1
    27    16    17    1
    28    31    25   ar
    29     6     1   ar
    30    12     7    1
    31    15    13    1
    32    17     4    1
    33    22    23    1
    34    11    18    1
    35    11    19    1
@<TRIPOS>MOLECULE
*****
 31 35 0 0 0
SMALL
GASTEIGER

@<TRIPOS>ATOM
      1 C         141.7292  141.6029  164.4476 C.ar    1  UNL1        0.0505
      2 C         142.9819  142.4224  164.5419 C.ar    1  UNL1        0.0178
      3 C         143.5760  142.7327  165.8839 C.ar    1  UNL1        0.0379
      4 C         142.9172  142.2235  167.1315 C.ar    1  UNL1        0.1364
      5 C         141.6644  141.4039  167.0373 C.ar    1  UNL1        0.0367
      6 C         141.0703  141.0937  165.6953 C.ar    1  UNL1        0.0153
      7 C         141.0056  140.8947  168.2849 C.3     1  UNL1        0.1537
      8 C         140.2390  140.3201  169.4391 C.3     1  UNL1        0.2350
      9 O         139.0591  139.5762  168.8874 O.2     1  UNL1       -0.4478
     10 C         139.0964  139.6911  167.3922 C.2     1  UNL1        0.2770
     11 N         138.1049  139.0956  166.4371 N.pl3   1  UNL1       -0.3133
     12 N         140.2995  140.5059  167.0199 N.2     1  UNL1       -0.2204
     13 C         141.5996  141.2050  169.6269 C.3     1  UNL1        0.0666
     14 C         141.5622  141.0901  171.1220 C.3     1  UNL1        0.0061
     15 C         140.4960  140.4378  170.2928 C.3     1  UNL1        0.0061
     16 C         142.8524  142.0245  169.7212 C.3     1  UNL1        0.2074
     17 O         143.5112  142.5337  168.4735 O.3     1  UNL1       -0.4756
     18 H         137.3437  138.5736  166.7797 H       1  UNL1        0.1466
     19 H         138.2152  139.2268  165.4677 H       1  UNL1        0.1466
     20 C         139.9138  142.0272  162.6381 C.2     1  UNL1        0.2669
     21 O         139.2863  143.0721  163.5126 O.2     1  UNL1       -0.2682
     22 N         141.1351  141.2927  163.1056 N.am    1  UNL1       -0.2792
     23 H         141.5469  140.6069  162.5317 H       1  UNL1        0.1552
     24 C         138.0833  139.6722  162.3162 C.3     1  UNL1        0.0328
     25 C         138.4045  140.5395  161.1352 C.ar    1  UNL1        0.0012
     26 C         137.8105  140.2292  159.7932 C.ar    1  UNL1        0.0103
     27 C         138.1317  141.0964  158.6122 C.ar    1  UNL1        0.0765
     28 CL        137.5377  140.7861  157.2703 Cl      1  UNL1       -0.0806
     29 C         139.0469  142.2739  158.7732 C.ar    1  UNL1        0.1103
     30 N         139.6410  142.5842  160.1151 N.ar    1  UNL1       -0.2387
     31 C         139.3197  141.7169  161.2962 C.ar    1  UNL1        0.1308
@<TRIPOS>BOND
     1    24    25    1
     2    25    26   ar
     3    26    27   ar
     4    27    28    1
     5    27    29   ar
     6    29    30   ar
     7    30    31   ar
     8    31    20    1
     9    20    21    2
    10    20    22   am
    11    22     1    1
    12     1     2   ar
    13     2     3   ar
    14     3     4   ar
    15     4     5   ar
    16     5     6   ar
    17     5     7    1
    18     7     8    1
    19     8     9    1
    20     9    10    1
    21    10    11    1
    22    10    12    2
    23     7    13    1
    24    13    14    1
    25    14    15    1
    26    13    16    1
    27    16    17    1
    28    31    25   ar
    29     6     1   ar
    30    12     7    1
    31    15    13    1
    32    17     4    1
    33    22    23    1
    34    11    18    1
    35    11    19    1
@<TRIPOS>MOLECULE
*****
 31 35 0 0 0
SMALL
GASTEIGER

@<TRIPOS>ATOM
      1 C         140.7270  142.8721  164.3466 C.ar    1  UNL1        0.0505
      2 C         139.9007  143.8188  165.1657 C.ar    1  UNL1        0.0178
      3 C         139.7860  143.6239  166.6486 C.ar    1  UNL1        0.0379
      4 C         140.4976  142.4825  167.3123 C.ar    1  UNL1        0.1364
      5 C         141.3239  141.5357  166.4932 C.ar    1  UNL1        0.0367
      6 C         141.4386  141.7306  165.0103 C.ar    1  UNL1        0.0153
      7 C         142.0355  140.3942  167.1569 C.3     1  UNL1        0.1537
      8 C         142.8000  139.2136  167.6781 C.3     1  UNL1        0.2350
      9 O         143.4794  138.5517  166.5161 O.2     1  UNL1       -0.4478
     10 C         143.1348  139.3232  165.2767 C.2     1  UNL1        0.2770
     11 N         143.6007  139.0109  163.8855 N.pl3   1  UNL1       -0.3133
     12 N         142.2424  140.4620  165.6728 N.2     1  UNL1       -0.2204
     13 C         141.9208  140.1994  168.6398 C.3     1  UNL1        0.0666
     14 C         142.2654  139.4279  169.8791 C.3     1  UNL1        0.0061
     15 C         142.8087  138.9938  168.5500 C.3     1  UNL1        0.0061
     16 C         141.0945  141.1461  169.4589 C.3     1  UNL1        0.2074
     17 O         140.3828  142.2876  168.7952 O.3     1  UNL1       -0.4756
     18 H         144.1882  138.2373  163.7252 H       1  UNL1        0.1466
     19 H         143.3191  139.5794  163.1328 H       1  UNL1        0.1466
     20 C         141.7972  144.0833  162.3125 C.2     1  UNL1        0.2669
     21 O         142.6381  144.9050  163.2442 O.2     1  UNL1       -0.2682
     22 N         140.8417  143.0670  162.8637 N.am    1  UNL1       -0.2792
     23 H         140.2898  142.5277  162.2522 H       1  UNL1        0.1552
     24 C         139.9505  145.9804  160.9016 C.3     1  UNL1        0.0328
     25 C         140.9886  145.2267  160.1242 C.ar    1  UNL1        0.0012
     26 C         141.1033  145.4215  158.6413 C.ar    1  UNL1        0.0103
     27 C         142.1413  144.6679  157.8639 C.ar    1  UNL1        0.0765
     28 CL        142.2560  144.8627  156.3811 Cl      1  UNL1       -0.0806
     29 C         143.0647  143.7193  158.5694 C.ar    1  UNL1        0.1103
     30 N         142.9500  143.5244  160.0523 N.ar    1  UNL1       -0.2387
     31 C         141.9119  144.2782  160.8296 C.ar    1  UNL1        0.1308
@<TRIPOS>BOND
     1    24    25    1
     2    25    26   ar
     3    26    27   ar
     4    27    28    1
     5    27    29   ar
     6    29    30   ar
     7    30    31   ar
     8    31    20    1
     9    20    21    2
    10    20    22   am
    11    22     1    1
    12     1     2   ar
    13     2     3   ar
    14     3     4   ar
    15     4     5   ar
    16     5     6   ar
    17     5     7    1
    18     7     8    1
    19     8     9    1
    20     9    10    1
    21    10    11    1
    22    10    12    2
    23     7    13    1
    24    13    14    1
    25    14    15    1
    26    13    16    1
    27    16    17    1
    28    31    25   ar
    29     6     1   ar
    30    12     7    1
    31    15    13    1
    32    17     4    1
    33    22    23    1
    34    11    18    1
    35    11    19    1
