@<TRIPOS>MOLECULE
*****
 34 38 0 0 0
SMALL
GASTEIGER

@<TRIPOS>ATOM
      1 N         142.2076  141.1490  161.1820 N.3     1  UNL1       -0.2726
      2 C         143.3816  140.3292  160.7352 C.3     1  UNL1        0.0721
      3 C         144.3717  139.5780  161.5751 C.3     1  UNL1        0.0177
      4 C         144.4323  139.4611  163.0694 C.3     1  UNL1        0.0055
      5 C         144.6737  139.2162  164.5294 C.3     1  UNL1        0.0045
      6 C         143.5178  140.0665  164.0927 C.3     1  UNL1        0.0203
      7 C         142.3168  140.9383  163.8745 C.3     1  UNL1        0.0214
      8 C         141.7337  141.4201  162.5792 C.3     1  UNL1        0.0724
      9 C         143.2166  140.2104  165.5551 C.ar    1  UNL1       -0.0228
     10 C         143.1659  138.9956  166.4335 C.ar    1  UNL1       -0.0043
     11 C         142.8647  139.1396  167.8959 C.ar    1  UNL1        0.0035
     12 C         142.6144  140.4984  168.4799 C.ar    1  UNL1        0.0714
     13 C         142.6652  141.7133  167.6014 C.ar    1  UNL1        0.0035
     14 C         142.9663  141.5692  166.1391 C.ar    1  UNL1       -0.0043
     15 C         142.3132  140.6424  169.9422 C.3     1  UNL1        0.4186
     16 F         142.0121  140.7864  171.4046 F       1  UNL1       -0.1659
     17 F         141.3813  139.4695  169.8658 F       1  UNL1       -0.1659
     18 F         143.2452  141.8153  170.0187 F       1  UNL1       -0.1659
     19 C         141.4008  141.7813  160.0869 C.3     1  UNL1        0.0730
     20 C         140.6706  140.9195  159.1000 C.3     1  UNL1        0.0294
     21 C         139.5276  140.0614  159.5551 C.3     1  UNL1        0.0666
     22 S         139.7790  138.6505  159.9982 S.3     1  UNL1       -0.0756
     23 C         137.8586  139.5877  162.4645 C.3     1  UNL1        0.1340
     24 N         139.1165  138.7794  162.5846 N.ar    1  UNL1       -0.2884
     25 C         139.9992  138.3486  161.4509 C.ar    1  UNL1        0.1932
     26 N         141.1407  137.5629  162.0250 N.ar    1  UNL1       -0.1221
     27 N         140.9635  137.5082  163.5134 N.ar    1  UNL1       -0.1282
     28 C         139.7125  138.2600  163.8593 C.ar    1  UNL1        0.1684
     29 C         139.1552  138.4577  165.2379 C.ar    1  UNL1        0.0585
     30 C         139.6297  139.6037  166.0814 C.ar    1  UNL1        0.0272
     31 C         139.0724  139.8013  167.4600 C.ar    1  UNL1        0.1223
     32 N         138.0407  138.8529  167.9950 N.ar    1  UNL1       -0.1464
     33 N         137.5662  137.7069  167.1515 N.ar    1  UNL1       -0.1463
     34 C         138.1235  137.5093  165.7729 C.ar    1  UNL1        0.1252
@<TRIPOS>BOND
     1    23    24    1
     2    24    25   ar
     3    25    22    1
     4    22    21    1
     5    21    20    1
     6    20    19    1
     7    19     1    1
     8     1     2    1
     9     2     3    1
    10     3     4    1
    11     4     5    1
    12     5     6    1
    13     6     9    1
    14     9    10   ar
    15    10    11   ar
    16    11    12   ar
    17    12    15    1
    18    15    16    1
    19    15    17    1
    20    15    18    1
    21    12    13   ar
    22    13    14   ar
    23     6     7    1
    24     7     8    1
    25    25    26   ar
    26    26    27   ar
    27    27    28   ar
    28    28    29    1
    29    29    30   ar
    30    30    31   ar
    31    31    32   ar
    32    32    33   ar
    33    33    34   ar
    34    28    24   ar
    35    34    29   ar
    36     8     1    1
    37     6     4    1
    38    14     9   ar
@<TRIPOS>MOLECULE
*****
 34 38 0 0 0
SMALL
GASTEIGER

@<TRIPOS>ATOM
      1 N         141.2388  138.1427  162.8437 N.3     1  UNL1       -0.2726
      2 C         139.8288  137.6569  163.0048 C.3     1  UNL1        0.0721
      3 C         138.8749  137.9124  164.1339 C.3     1  UNL1        0.0177
      4 C         139.0953  138.7168  165.3807 C.3     1  UNL1        0.0055
      5 C         139.1053  139.4652  166.6805 C.3     1  UNL1        0.0045
      6 C         140.3242  139.4643  165.8063 C.3     1  UNL1        0.0203
      7 C         141.6360  139.5920  165.0903 C.3     1  UNL1        0.0214
      8 C         142.0431  139.0039  163.7718 C.3     1  UNL1        0.0724
      9 C         140.9463  140.3256  166.8651 C.ar    1  UNL1       -0.0228
     10 C         142.0859  139.7992  167.6862 C.ar    1  UNL1       -0.0043
     11 C         142.7080  140.6606  168.7451 C.ar    1  UNL1        0.0035
     12 C         142.1906  142.0483  168.9827 C.ar    1  UNL1        0.0714
     13 C         141.0510  142.5747  168.1615 C.ar    1  UNL1        0.0035
     14 C         140.4289  141.7134  167.1027 C.ar    1  UNL1       -0.0043
     15 C         142.8127  142.9097  170.0414 C.3     1  UNL1        0.4186
     16 F         143.4347  143.7711  171.1002 F       1  UNL1       -0.1659
     17 F         141.5660  143.7421  170.0966 F       1  UNL1       -0.1659
     18 F         144.0593  142.0773  169.9863 F       1  UNL1       -0.1659
     19 C         141.9368  137.7100  161.5885 C.3     1  UNL1        0.0730
     20 C         143.2617  138.3102  161.2221 C.3     1  UNL1        0.0294
     21 C         143.4326  139.0015  159.9019 C.3     1  UNL1        0.0666
     22 S         143.3436  140.4968  159.8213 S.3     1  UNL1       -0.0756
     23 C         140.2593  141.1970  160.6250 C.3     1  UNL1        0.1340
     24 N         141.4842  141.6092  161.3865 N.ar    1  UNL1       -0.2884
     25 C         142.9019  141.2874  161.0170 C.ar    1  UNL1        0.1932
     26 N         143.8002  141.8949  162.0533 N.ar    1  UNL1       -0.1221
     27 N         142.9378  142.5922  163.0631 N.ar    1  UNL1       -0.1282
     28 C         141.5064  142.4156  162.6510 C.ar    1  UNL1        0.1684
     29 C         140.3075  142.9515  163.3762 C.ar    1  UNL1        0.0585
     30 C         139.1155  142.0709  163.6078 C.ar    1  UNL1        0.0272
     31 C         137.9168  142.6068  164.3329 C.ar    1  UNL1        0.1223
     32 N         137.9101  144.0233  164.8265 N.ar    1  UNL1       -0.1464
     33 N         139.1021  144.9039  164.5949 N.ar    1  UNL1       -0.1463
     34 C         140.3008  144.3680  163.8697 C.ar    1  UNL1        0.1252
@<TRIPOS>BOND
     1    23    24    1
     2    24    25   ar
     3    25    22    1
     4    22    21    1
     5    21    20    1
     6    20    19    1
     7    19     1    1
     8     1     2    1
     9     2     3    1
    10     3     4    1
    11     4     5    1
    12     5     6    1
    13     6     9    1
    14     9    10   ar
    15    10    11   ar
    16    11    12   ar
    17    12    15    1
    18    15    16    1
    19    15    17    1
    20    15    18    1
    21    12    13   ar
    22    13    14   ar
    23     6     7    1
    24     7     8    1
    25    25    26   ar
    26    26    27   ar
    27    27    28   ar
    28    28    29    1
    29    29    30   ar
    30    30    31   ar
    31    31    32   ar
    32    32    33   ar
    33    33    34   ar
    34    28    24   ar
    35    34    29   ar
    36     8     1    1
    37     6     4    1
    38    14     9   ar
@<TRIPOS>MOLECULE
*****
 34 38 0 0 0
SMALL
GASTEIGER

@<TRIPOS>ATOM
      1 N         141.3455  144.5903  162.7131 N.3     1  UNL1       -0.2726
      2 C         142.7612  144.2996  162.3115 C.3     1  UNL1        0.0721
      3 C         143.7708  143.4333  163.0045 C.3     1  UNL1        0.0177
      4 C         143.6141  142.6437  164.2702 C.3     1  UNL1        0.0055
      5 C         143.6702  141.7917  165.5034 C.3     1  UNL1        0.0045
      6 C         142.4091  142.5255  165.1556 C.3     1  UNL1        0.0203
      7 C         141.0631  143.1676  164.9939 C.3     1  UNL1        0.0214
      8 C         140.5897  144.0865  163.9069 C.3     1  UNL1        0.0724
      9 C         141.8418  141.9120  166.4014 C.ar    1  UNL1       -0.0228
     10 C         140.8868  142.6934  167.2543 C.ar    1  UNL1       -0.0043
     11 C         140.3195  142.0799  168.5001 C.ar    1  UNL1        0.0035
     12 C         140.7074  140.6852  168.8929 C.ar    1  UNL1        0.0714
     13 C         141.6625  139.9038  168.0400 C.ar    1  UNL1        0.0035
     14 C         142.2297  140.5173  166.7943 C.ar    1  UNL1       -0.0043
     15 C         140.1402  140.0717  170.1386 C.3     1  UNL1        0.4186
     16 F         139.5730  139.4582  171.3845 F       1  UNL1       -0.1659
     17 F         141.4986  140.1062  170.7740 F       1  UNL1       -0.1659
     18 F         138.7818  140.0372  169.5033 F       1  UNL1       -0.1659
     19 C         140.5849  145.5059  161.8003 C.3     1  UNL1        0.0730
     20 C         140.8395  145.4726  160.3224 C.3     1  UNL1        0.0294
     21 C         140.0282  144.5690  159.4418 C.3     1  UNL1        0.0666
     22 S         140.0694  143.0841  159.6500 S.3     1  UNL1       -0.0756
     23 C         141.0804  140.8037  161.7540 C.3     1  UNL1        0.1340
     24 N         139.7082  141.4072  161.7000 N.ar    1  UNL1       -0.2884
     25 C         139.2435  142.4553  160.7328 C.ar    1  UNL1        0.1932
     26 N         137.8079  142.7644  161.0387 N.ar    1  UNL1       -0.1221
     27 N         137.3854  141.9073  162.1948 N.ar    1  UNL1       -0.1282
     28 C         138.5598  141.0684  162.6035 C.ar    1  UNL1        0.1684
     29 C         138.5820  140.0667  163.7199 C.ar    1  UNL1        0.0585
     30 C         138.3921  140.5191  165.1373 C.ar    1  UNL1        0.0272
     31 C         138.4143  139.5173  166.2536 C.ar    1  UNL1        0.1223
     32 N         138.6262  138.0633  165.9524 N.ar    1  UNL1       -0.1464
     33 N         138.8161  137.6109  164.5349 N.ar    1  UNL1       -0.1463
     34 C         138.7939  138.6126  163.4186 C.ar    1  UNL1        0.1252
@<TRIPOS>BOND
     1    23    24    1
     2    24    25   ar
     3    25    22    1
     4    22    21    1
     5    21    20    1
     6    20    19    1
     7    19     1    1
     8     1     2    1
     9     2     3    1
    10     3     4    1
    11     4     5    1
    12     5     6    1
    13     6     9    1
    14     9    10   ar
    15    10    11   ar
    16    11    12   ar
    17    12    15    1
    18    15    16    1
    19    15    17    1
    20    15    18    1
    21    12    13   ar
    22    13    14   ar
    23     6     7    1
    24     7     8    1
    25    25    26   ar
    26    26    27   ar
    27    27    28   ar
    28    28    29    1
    29    29    30   ar
    30    30    31   ar
    31    31    32   ar
    32    32    33   ar
    33    33    34   ar
    34    28    24   ar
    35    34    29   ar
    36     8     1    1
    37     6     4    1
    38    14     9   ar
@<TRIPOS>MOLECULE
*****
 34 38 0 0 0
SMALL
GASTEIGER

@<TRIPOS>ATOM
      1 N         138.8402  144.0714  163.3598 N.3     1  UNL1       -0.2726
      2 C         137.8830  143.0642  162.7946 C.3     1  UNL1        0.0721
      3 C         137.6286  141.6578  163.2498 C.3     1  UNL1        0.0177
      4 C         138.2685  140.9111  164.3825 C.3     1  UNL1        0.0055
      5 C         138.7767  139.9934  165.4547 C.3     1  UNL1        0.0045
      6 C         139.3209  141.3864  165.3398 C.3     1  UNL1        0.0203
      7 C         139.9933  142.7259  165.4008 C.3     1  UNL1        0.0214
      8 C         139.7794  143.9208  164.5196 C.3     1  UNL1        0.0724
      9 C         140.1788  141.0277  166.5168 C.ar    1  UNL1       -0.0228
     10 C         139.5985  140.2442  167.6567 C.ar    1  UNL1       -0.0043
     11 C         140.4564  139.8854  168.8338 C.ar    1  UNL1        0.0035
     12 C         141.8945  140.3102  168.8709 C.ar    1  UNL1        0.0714
     13 C         142.4748  141.0938  167.7309 C.ar    1  UNL1        0.0035
     14 C         141.6169  141.4525  166.5540 C.ar    1  UNL1       -0.0043
     15 C         142.7524  139.9515  170.0478 C.3     1  UNL1        0.4186
     16 F         143.6103  139.5927  171.2249 F       1  UNL1       -0.1659
     17 F         141.9661  138.6879  170.2358 F       1  UNL1       -0.1659
     18 F         143.5387  141.2150  169.8600 F       1  UNL1       -0.1659
     19 C         138.8610  145.4055  162.6744 C.3     1  UNL1        0.0730
     20 C         140.1168  145.8887  162.0116 C.3     1  UNL1        0.0294
     21 C         140.4002  145.5229  160.5847 C.3     1  UNL1        0.0666
     22 S         141.4829  144.5353  160.2645 S.3     1  UNL1       -0.0756
     23 C         140.1477  141.5592  160.1674 C.3     1  UNL1        0.1340
     24 N         141.1593  142.0396  161.1655 N.ar    1  UNL1       -0.2884
     25 C         141.7729  143.4076  161.2100 C.ar    1  UNL1        0.1932
     26 N         142.7276  143.4498  162.3662 N.ar    1  UNL1       -0.1221
     27 N         142.7040  142.1081  163.0362 N.ar    1  UNL1       -0.1282
     28 C         141.7346  141.2365  162.2941 C.ar    1  UNL1        0.1684
     29 C         141.3996  139.8117  162.6229 C.ar    1  UNL1        0.0585
     30 C         142.0068  139.1575  163.8284 C.ar    1  UNL1        0.0272
     31 C         141.6718  137.7328  164.1571 C.ar    1  UNL1        0.1223
     32 N         140.7294  136.9625  163.2804 N.ar    1  UNL1       -0.1464
     33 N         140.1221  137.6167  162.0750 N.ar    1  UNL1       -0.1463
     34 C         140.4572  139.0414  161.7462 C.ar    1  UNL1        0.1252
@<TRIPOS>BOND
     1    23    24    1
     2    24    25   ar
     3    25    22    1
     4    22    21    1
     5    21    20    1
     6    20    19    1
     7    19     1    1
     8     1     2    1
     9     2     3    1
    10     3     4    1
    11     4     5    1
    12     5     6    1
    13     6     9    1
    14     9    10   ar
    15    10    11   ar
    16    11    12   ar
    17    12    15    1
    18    15    16    1
    19    15    17    1
    20    15    18    1
    21    12    13   ar
    22    13    14   ar
    23     6     7    1
    24     7     8    1
    25    25    26   ar
    26    26    27   ar
    27    27    28   ar
    28    28    29    1
    29    29    30   ar
    30    30    31   ar
    31    31    32   ar
    32    32    33   ar
    33    33    34   ar
    34    28    24   ar
    35    34    29   ar
    36     8     1    1
    37     6     4    1
    38    14     9   ar
@<TRIPOS>MOLECULE
*****
 34 38 0 0 0
SMALL
GASTEIGER

@<TRIPOS>ATOM
      1 N         143.9003  139.4790  163.0133 N.3     1  UNL1       -0.2726
      2 C         144.9225  140.4835  162.5702 C.3     1  UNL1        0.0721
      3 C         145.2431  141.8193  163.1723 C.3     1  UNL1        0.0177
      4 C         144.6210  142.4808  164.3662 C.3     1  UNL1        0.0055
      5 C         144.1408  143.3109  165.5196 C.3     1  UNL1        0.0045
      6 C         143.5244  141.9697  165.2529 C.3     1  UNL1        0.0203
      7 C         142.7792  140.6709  165.1646 C.3     1  UNL1        0.0214
      8 C         142.9464  139.5624  164.1680 C.3     1  UNL1        0.0724
      9 C         142.6626  142.2535  166.4474 C.ar    1  UNL1       -0.0228
     10 C         143.2574  142.2281  167.8242 C.ar    1  UNL1       -0.0043
     11 C         142.3956  142.5120  169.0188 C.ar    1  UNL1        0.0035
     12 C         140.9392  142.8212  168.8364 C.ar    1  UNL1        0.0714
     13 C         140.3445  142.8466  167.4595 C.ar    1  UNL1        0.0035
     14 C         141.2062  142.5628  166.2651 C.ar    1  UNL1       -0.0043
     15 C         140.0775  143.1051  170.0309 C.3     1  UNL1        0.4186
     16 F         139.2157  143.3889  171.2254 F       1  UNL1       -0.1659
     17 F         139.7677  141.6426  170.1548 F       1  UNL1       -0.1659
     18 F         140.3872  144.5675  169.9070 F       1  UNL1       -0.1659
     19 C         143.8216  138.2254  162.1934 C.3     1  UNL1        0.0730
     20 C         142.5671  137.9008  161.4381 C.3     1  UNL1        0.0294
     21 C         142.5340  138.0379  159.9447 C.3     1  UNL1        0.0666
     22 S         141.3192  138.6032  159.2702 S.3     1  UNL1       -0.0756
     23 C         141.3715  141.4705  160.8274 C.3     1  UNL1        0.1340
     24 N         140.2292  140.4984  160.8081 N.ar    1  UNL1       -0.2884
     25 C         140.2052  139.1804  160.0923 C.ar    1  UNL1        0.1932
     26 N         138.8717  138.5411  160.3430 N.ar    1  UNL1       -0.1221
     27 N         138.0716  139.4639  161.2136 N.ar    1  UNL1       -0.1282
     28 C         138.9106  140.6736  161.5011 C.ar    1  UNL1        0.1684
     29 C         138.5025  141.8517  162.3352 C.ar    1  UNL1        0.0585
     30 C         138.3012  141.6908  163.8129 C.ar    1  UNL1        0.0272
     31 C         137.8931  142.8688  164.6469 C.ar    1  UNL1        0.1223
     32 N         137.6863  144.2079  164.0032 N.ar    1  UNL1       -0.1464
     33 N         137.8876  144.3688  162.5255 N.ar    1  UNL1       -0.1463
     34 C         138.2956  143.1907  161.6915 C.ar    1  UNL1        0.1252
@<TRIPOS>BOND
     1    23    24    1
     2    24    25   ar
     3    25    22    1
     4    22    21    1
     5    21    20    1
     6    20    19    1
     7    19     1    1
     8     1     2    1
     9     2     3    1
    10     3     4    1
    11     4     5    1
    12     5     6    1
    13     6     9    1
    14     9    10   ar
    15    10    11   ar
    16    11    12   ar
    17    12    15    1
    18    15    16    1
    19    15    17    1
    20    15    18    1
    21    12    13   ar
    22    13    14   ar
    23     6     7    1
    24     7     8    1
    25    25    26   ar
    26    26    27   ar
    27    27    28   ar
    28    28    29    1
    29    29    30   ar
    30    30    31   ar
    31    31    32   ar
    32    32    33   ar
    33    33    34   ar
    34    28    24   ar
    35    34    29   ar
    36     8     1    1
    37     6     4    1
    38    14     9   ar
@<TRIPOS>MOLECULE
*****
 34 38 0 0 0
SMALL
GASTEIGER

@<TRIPOS>ATOM
      1 N         143.9039  139.6101  162.9564 N.3     1  UNL1       -0.2726
      2 C         144.9043  140.6370  162.5152 C.3     1  UNL1        0.0721
      3 C         145.2038  141.9737  163.1262 C.3     1  UNL1        0.0177
      4 C         144.5770  142.6138  164.3293 C.3     1  UNL1        0.0055
      5 C         144.0887  143.4254  165.4925 C.3     1  UNL1        0.0045
      6 C         143.4957  142.0751  165.2185 C.3     1  UNL1        0.0203
      7 C         142.7743  140.7633  165.1242 C.3     1  UNL1        0.0214
      8 C         142.9559  139.6663  164.1175 C.3     1  UNL1        0.0724
      9 C         142.6364  142.3331  166.4207 C.ar    1  UNL1       -0.0228
     10 C         141.1738  142.6186  166.2496 C.ar    1  UNL1       -0.0043
     11 C         140.3144  142.8766  167.4517 C.ar    1  UNL1        0.0035
     12 C         140.9178  142.8492  168.8248 C.ar    1  UNL1        0.0714
     13 C         142.3804  142.5637  168.9958 C.ar    1  UNL1        0.0035
     14 C         143.2397  142.3057  167.7937 C.ar    1  UNL1       -0.0043
     15 C         140.0585  143.1072  170.0268 C.3     1  UNL1        0.4186
     16 F         139.1992  143.3653  171.2290 F       1  UNL1       -0.1659
     17 F         140.5504  144.5235  170.0744 F       1  UNL1       -0.1659
     18 F         139.5666  141.6909  169.9794 F       1  UNL1       -0.1659
     19 C         143.8434  138.3619  162.1267 C.3     1  UNL1        0.0730
     20 C         142.6324  138.0760  161.2891 C.3     1  UNL1        0.0294
     21 C         142.7782  137.8436  159.8144 C.3     1  UNL1        0.0666
     22 S         142.4988  138.9567  158.8485 S.3     1  UNL1       -0.0756
     23 C         140.2016  140.8259  160.2188 C.3     1  UNL1        0.1340
     24 N         141.6091  141.2429  159.9100 N.ar    1  UNL1       -0.2884
     25 C         142.6650  140.3837  159.2801 C.ar    1  UNL1        0.1932
     26 N         143.9161  141.2019  159.1576 N.ar    1  UNL1       -0.1221
     27 N         143.6335  142.5667  159.7118 N.ar    1  UNL1       -0.1282
     28 C         142.2076  142.5920  160.1768 C.ar    1  UNL1        0.1684
     29 C         141.5039  143.7614  160.7994 C.ar    1  UNL1        0.0585
     30 C         141.6969  144.0643  162.2557 C.ar    1  UNL1        0.0272
     31 C         140.9931  145.2336  162.8782 C.ar    1  UNL1        0.1223
     32 N         140.0964  146.1000  162.0443 N.ar    1  UNL1       -0.1464
     33 N         139.9034  145.7971  160.5880 N.ar    1  UNL1       -0.1463
     34 C         140.6072  144.6278  159.9655 C.ar    1  UNL1        0.1252
@<TRIPOS>BOND
     1    23    24    1
     2    24    25   ar
     3    25    22    1
     4    22    21    1
     5    21    20    1
     6    20    19    1
     7    19     1    1
     8     1     2    1
     9     2     3    1
    10     3     4    1
    11     4     5    1
    12     5     6    1
    13     6     9    1
    14     9    10   ar
    15    10    11   ar
    16    11    12   ar
    17    12    15    1
    18    15    16    1
    19    15    17    1
    20    15    18    1
    21    12    13   ar
    22    13    14   ar
    23     6     7    1
    24     7     8    1
    25    25    26   ar
    26    26    27   ar
    27    27    28   ar
    28    28    29    1
    29    29    30   ar
    30    30    31   ar
    31    31    32   ar
    32    32    33   ar
    33    33    34   ar
    34    28    24   ar
    35    34    29   ar
    36     8     1    1
    37     6     4    1
    38    14     9   ar
@<TRIPOS>MOLECULE
*****
 34 38 0 0 0
SMALL
GASTEIGER

@<TRIPOS>ATOM
      1 N         140.9314  143.8176  160.9496 N.3     1  UNL1       -0.2726
      2 C         141.1833  145.0410  161.7803 C.3     1  UNL1        0.0721
      3 C         140.9747  145.2302  163.2536 C.3     1  UNL1        0.0177
      4 C         140.4627  144.2429  164.2602 C.3     1  UNL1        0.0055
      5 C         139.9776  143.4200  165.4166 C.3     1  UNL1        0.0045
      6 C         140.0329  142.8224  164.0420 C.3     1  UNL1        0.0203
      7 C         140.0089  142.0385  162.7633 C.3     1  UNL1        0.0214
      8 C         140.4088  142.4813  161.3871 C.3     1  UNL1        0.0724
      9 C         139.5020  141.5755  164.6849 C.ar    1  UNL1       -0.0228
     10 C         139.6468  141.3745  166.1643 C.ar    1  UNL1       -0.0043
     11 C         139.1159  140.1276  166.8073 C.ar    1  UNL1        0.0035
     12 C         138.4402  139.0817  165.9708 C.ar    1  UNL1        0.0714
     13 C         138.2954  139.2827  164.4913 C.ar    1  UNL1        0.0035
     14 C         138.8264  140.5296  163.8485 C.ar    1  UNL1       -0.0043
     15 C         137.9093  137.8348  166.6137 C.3     1  UNL1        0.4186
     16 F         137.3783  136.5879  167.2566 F       1  UNL1       -0.1659
     17 F         137.1999  138.6666  167.6409 F       1  UNL1       -0.1659
     18 F         138.6187  137.0031  165.5866 F       1  UNL1       -0.1659
     19 C         141.2435  143.9477  159.4882 C.3     1  UNL1        0.0730
     20 C         142.6654  143.8782  159.0158 C.3     1  UNL1        0.0294
     21 C         143.4151  142.5806  159.0818 C.3     1  UNL1        0.0666
     22 S         144.5510  142.4190  160.0480 S.3     1  UNL1       -0.0756
     23 C         143.6465  140.1625  162.2250 C.3     1  UNL1        0.1340
     24 N         143.9116  141.6103  162.5142 N.ar    1  UNL1       -0.2884
     25 C         144.3273  142.6475  161.5135 C.ar    1  UNL1        0.1932
     26 N         144.4802  143.9532  162.2357 N.ar    1  UNL1       -0.1221
     27 N         144.1588  143.7231  163.6826 N.ar    1  UNL1       -0.1282
     28 C         143.8074  142.2750  163.8547 C.ar    1  UNL1        0.1684
     29 C         143.4199  141.6087  165.1416 C.ar    1  UNL1        0.0585
     30 C         143.0938  140.1447  165.1597 C.ar    1  UNL1        0.0272
     31 C         142.7063  139.4785  166.4465 C.ar    1  UNL1        0.1223
     32 N         142.6448  140.2762  167.7153 N.ar    1  UNL1       -0.1464
     33 N         142.9709  141.7403  167.6972 N.ar    1  UNL1       -0.1463
     34 C         143.3584  142.4065  166.4104 C.ar    1  UNL1        0.1252
@<TRIPOS>BOND
     1    23    24    1
     2    24    25   ar
     3    25    22    1
     4    22    21    1
     5    21    20    1
     6    20    19    1
     7    19     1    1
     8     1     2    1
     9     2     3    1
    10     3     4    1
    11     4     5    1
    12     5     6    1
    13     6     9    1
    14     9    10   ar
    15    10    11   ar
    16    11    12   ar
    17    12    15    1
    18    15    16    1
    19    15    17    1
    20    15    18    1
    21    12    13   ar
    22    13    14   ar
    23     6     7    1
    24     7     8    1
    25    25    26   ar
    26    26    27   ar
    27    27    28   ar
    28    28    29    1
    29    29    30   ar
    30    30    31   ar
    31    31    32   ar
    32    32    33   ar
    33    33    34   ar
    34    28    24   ar
    35    34    29   ar
    36     8     1    1
    37     6     4    1
    38    14     9   ar
@<TRIPOS>MOLECULE
*****
 34 38 0 0 0
SMALL
GASTEIGER

@<TRIPOS>ATOM
      1 N         144.1075  141.3230  162.7508 N.3     1  UNL1       -0.2726
      2 C         144.5896  139.9066  162.8581 C.3     1  UNL1        0.0721
      3 C         144.4015  138.9378  163.9877 C.3     1  UNL1        0.0177
      4 C         143.6848  139.1459  165.2889 C.3     1  UNL1        0.0055
      5 C         143.0254  139.1424  166.6362 C.3     1  UNL1        0.0045
      6 C         142.9792  140.3744  165.7818 C.3     1  UNL1        0.0203
      7 C         142.8161  141.6981  165.0953 C.3     1  UNL1        0.0214
      8 C         143.3182  142.1203  163.7464 C.3     1  UNL1        0.0724
      9 C         142.1967  140.9876  166.9052 C.ar    1  UNL1       -0.0228
     10 C         140.8433  140.4464  167.2593 C.ar    1  UNL1       -0.0043
     11 C         140.0609  141.0596  168.3827 C.ar    1  UNL1        0.0035
     12 C         140.6319  142.2139  169.1518 C.ar    1  UNL1        0.0714
     13 C         141.9854  142.7550  168.7977 C.ar    1  UNL1        0.0035
     14 C         142.7678  142.1418  167.6744 C.ar    1  UNL1       -0.0043
     15 C         139.8496  142.8270  170.2751 C.3     1  UNL1        0.4186
     16 F         139.0672  143.4402  171.3985 F       1  UNL1       -0.1659
     17 F         138.9772  141.6081  170.3328 F       1  UNL1       -0.1659
     18 F         140.7219  144.0459  170.2175 F       1  UNL1       -0.1659
     19 C         144.4615  142.0363  161.4796 C.3     1  UNL1        0.0730
     20 C         143.6860  143.2496  161.0595 C.3     1  UNL1        0.0294
     21 C         142.8917  143.2286  159.7873 C.3     1  UNL1        0.0666
     22 S         141.4870  142.7023  159.7888 S.3     1  UNL1       -0.0756
     23 C         140.9931  139.7370  161.0585 C.3     1  UNL1        0.1340
     24 N         140.5726  141.0398  161.6717 N.ar    1  UNL1       -0.2884
     25 C         140.7997  142.4028  161.0880 C.ar    1  UNL1        0.1932
     26 N         140.2187  143.4137  162.0317 N.ar    1  UNL1       -0.1221
     27 N         139.6327  142.6756  163.1985 N.ar    1  UNL1       -0.1282
     28 C         139.8514  141.2084  162.9760 C.ar    1  UNL1        0.1684
     29 C         139.4239  140.1037  163.8963 C.ar    1  UNL1        0.0585
     30 C         140.1955  138.8179  163.9339 C.ar    1  UNL1        0.0272
     31 C         139.7680  137.7133  164.8542 C.ar    1  UNL1        0.1223
     32 N         138.5689  137.8944  165.7370 N.ar    1  UNL1       -0.1464
     33 N         137.7973  139.1802  165.6995 N.ar    1  UNL1       -0.1463
     34 C         138.2248  140.2848  164.7792 C.ar    1  UNL1        0.1252
@<TRIPOS>BOND
     1    23    24    1
     2    24    25   ar
     3    25    22    1
     4    22    21    1
     5    21    20    1
     6    20    19    1
     7    19     1    1
     8     1     2    1
     9     2     3    1
    10     3     4    1
    11     4     5    1
    12     5     6    1
    13     6     9    1
    14     9    10   ar
    15    10    11   ar
    16    11    12   ar
    17    12    15    1
    18    15    16    1
    19    15    17    1
    20    15    18    1
    21    12    13   ar
    22    13    14   ar
    23     6     7    1
    24     7     8    1
    25    25    26   ar
    26    26    27   ar
    27    27    28   ar
    28    28    29    1
    29    29    30   ar
    30    30    31   ar
    31    31    32   ar
    32    32    33   ar
    33    33    34   ar
    34    28    24   ar
    35    34    29   ar
    36     8     1    1
    37     6     4    1
    38    14     9   ar
@<TRIPOS>MOLECULE
*****
 34 38 0 0 0
SMALL
GASTEIGER

@<TRIPOS>ATOM
      1 N         142.0724  141.2457  161.0949 N.3     1  UNL1       -0.2726
      2 C         143.0850  140.2152  160.6915 C.3     1  UNL1        0.0721
      3 C         144.0086  139.4194  161.5654 C.3     1  UNL1        0.0177
      4 C         144.1477  139.4573  163.0585 C.3     1  UNL1        0.0055
      5 C         144.4447  139.3387  164.5239 C.3     1  UNL1        0.0045
      6 C         143.3975  140.3007  164.0464 C.3     1  UNL1        0.0203
      7 C         142.3230  141.3142  163.7853 C.3     1  UNL1        0.0214
      8 C         141.7333  141.7349  162.4718 C.3     1  UNL1        0.0724
      9 C         143.2149  140.6460  165.4947 C.ar    1  UNL1       -0.0228
     10 C         143.2229  142.0814  165.9302 C.ar    1  UNL1       -0.0043
     11 C         143.0403  142.4267  167.3785 C.ar    1  UNL1        0.0035
     12 C         142.8497  141.3367  168.3911 C.ar    1  UNL1        0.0714
     13 C         142.8416  139.9013  167.9556 C.ar    1  UNL1        0.0035
     14 C         143.0243  139.5560  166.5074 C.ar    1  UNL1       -0.0043
     15 C         142.6670  141.6820  169.8394 C.3     1  UNL1        0.4186
     16 F         142.4844  142.0272  171.2877 F       1  UNL1       -0.1659
     17 F         143.1433  140.3130  170.2257 F       1  UNL1       -0.1659
     18 F         142.1908  143.0509  169.4531 F       1  UNL1       -0.1659
     19 C         141.2963  141.8696  159.9731 C.3     1  UNL1        0.0730
     20 C         140.6707  141.0027  158.9210 C.3     1  UNL1        0.0294
     21 C         139.2434  140.5636  159.0623 C.3     1  UNL1        0.0666
     22 S         138.8659  139.5684  160.1193 S.3     1  UNL1       -0.0756
     23 C         140.0065  138.4229  162.9541 C.3     1  UNL1        0.1340
     24 N         138.9907  139.5143  162.7888 N.ar    1  UNL1       -0.2884
     25 C         138.4665  140.0408  161.4858 C.ar    1  UNL1        0.1932
     26 N         137.4728  141.1227  161.7892 N.ar    1  UNL1       -0.1221
     27 N         137.3828  141.2648  163.2796 N.ar    1  UNL1       -0.1282
     28 C         138.3210  140.2707  163.8975 C.ar    1  UNL1        0.1684
     29 C         138.5493  140.0687  165.3662 C.ar    1  UNL1        0.0585
     30 C         139.4167  141.0256  166.1291 C.ar    1  UNL1        0.0272
     31 C         139.6450  140.8234  167.5977 C.ar    1  UNL1        0.1223
     32 N         139.0059  139.6644  168.3036 N.ar    1  UNL1       -0.1464
     33 N         138.1385  138.7075  167.5408 N.ar    1  UNL1       -0.1463
     34 C         137.9102  138.9096  166.0721 C.ar    1  UNL1        0.1252
@<TRIPOS>BOND
     1    23    24    1
     2    24    25   ar
     3    25    22    1
     4    22    21    1
     5    21    20    1
     6    20    19    1
     7    19     1    1
     8     1     2    1
     9     2     3    1
    10     3     4    1
    11     4     5    1
    12     5     6    1
    13     6     9    1
    14     9    10   ar
    15    10    11   ar
    16    11    12   ar
    17    12    15    1
    18    15    16    1
    19    15    17    1
    20    15    18    1
    21    12    13   ar
    22    13    14   ar
    23     6     7    1
    24     7     8    1
    25    25    26   ar
    26    26    27   ar
    27    27    28   ar
    28    28    29    1
    29    29    30   ar
    30    30    31   ar
    31    31    32   ar
    32    32    33   ar
    33    33    34   ar
    34    28    24   ar
    35    34    29   ar
    36     8     1    1
    37     6     4    1
    38    14     9   ar
