@<TRIPOS>MOLECULE
*****
 24 26 0 0 0
SMALL
GASTEIGER

@<TRIPOS>ATOM
      1 P         141.0236  141.4299  164.6065 P.3     1  UNL1        0.2234
      2 O         139.9122  141.9319  163.7330 O.2     1  UNL1       -0.2905
      3 C         140.2156  140.2091  164.9330 C.ar    1  UNL1        0.0496
      4 C         138.9217  140.3438  165.6799 C.ar    1  UNL1        0.0046
      5 C         138.1136  139.1230  166.0065 C.ar    1  UNL1        0.0002
      6 C         138.5994  137.7675  165.5863 C.ar    1  UNL1        0.0000
      7 C         139.8932  137.6328  164.8394 C.ar    1  UNL1        0.0002
      8 C         140.7014  138.8536  164.5128 C.ar    1  UNL1        0.0046
      9 C         141.8317  142.6506  164.2799 C.ar    1  UNL1        0.0496
     10 C         141.1620  143.9893  164.1819 C.ar    1  UNL1        0.0046
     11 C         141.9700  145.2101  163.8554 C.ar    1  UNL1        0.0002
     12 C         143.4478  145.0923  163.6267 C.ar    1  UNL1        0.0000
     13 C         144.1175  143.7537  163.7246 C.ar    1  UNL1        0.0002
     14 C         143.3095  142.5328  164.0512 C.ar    1  UNL1        0.0046
     15 N         142.1350  140.9279  165.4798 N.pl3   1  UNL1       -0.2869
     16 H         142.9367  140.5257  165.0739 H       1  UNL1        0.1540
     17 C         141.2953  142.3678  169.0815 C.ar    1  UNL1        0.0697
     18 C         141.8048  141.2601  169.9554 C.ar    1  UNL1        0.0104
     19 C         142.4243  140.0418  169.3374 C.ar    1  UNL1        0.0020
     20 C         142.5343  139.9311  167.8456 C.ar    1  UNL1        0.0147
     21 C         142.0249  141.0386  166.9717 C.ar    1  UNL1        0.0504
     22 C         141.4054  142.2570  167.5896 C.ar    1  UNL1        0.0249
     23 N         140.0564  144.8044  170.3174 N.1     1  UNL1       -0.1908
     24 C         140.6759  143.5861  169.6994 C.1     1  UNL1        0.1005
@<TRIPOS>BOND
     1    23    24    3
     2    24    17    1
     3    17    18   ar
     4    18    19   ar
     5    19    20   ar
     6    20    21   ar
     7    21    15    1
     8    15     1    1
     9     1     2    2
    10     1     3    1
    11     3     4   ar
    12     4     5   ar
    13     5     6   ar
    14     6     7   ar
    15     7     8   ar
    16     1     9    1
    17     9    10   ar
    18    10    11   ar
    19    11    12   ar
    20    12    13   ar
    21    13    14   ar
    22    21    22   ar
    23    22    17   ar
    24     8     3   ar
    25    14     9   ar
    26    15    16    1
@<TRIPOS>MOLECULE
*****
 24 26 0 0 0
SMALL
GASTEIGER

@<TRIPOS>ATOM
      1 P         141.0151  141.4359  164.6227 P.3     1  UNL1        0.2234
      2 O         139.9031  141.9346  163.7481 O.2     1  UNL1       -0.2905
      3 C         141.8188  142.6604  164.2991 C.ar    1  UNL1        0.0496
      4 C         143.3019  142.5534  164.1010 C.ar    1  UNL1        0.0046
      5 C         144.1055  143.7779  163.7774 C.ar    1  UNL1        0.0002
      6 C         143.4262  145.1093  163.6518 C.ar    1  UNL1        0.0000
      7 C         141.9432  145.2163  163.8499 C.ar    1  UNL1        0.0002
      8 C         141.1395  143.9918  164.1735 C.ar    1  UNL1        0.0046
      9 C         140.2114  140.2115  164.9463 C.ar    1  UNL1        0.0496
     10 C         140.6957  138.8599  164.5116 C.ar    1  UNL1        0.0046
     11 C         139.8921  137.6355  164.8352 C.ar    1  UNL1        0.0002
     12 C         138.6041  137.7625  165.5935 C.ar    1  UNL1        0.0000
     13 C         138.1198  139.1139  166.0281 C.ar    1  UNL1        0.0002
     14 C         138.9235  140.3385  165.7045 C.ar    1  UNL1        0.0046
     15 N         142.1270  140.9372  165.4972 N.pl3   1  UNL1       -0.2869
     16 H         142.9292  140.5350  165.0923 H       1  UNL1        0.1540
     17 C         141.2867  142.3852  169.0955 C.ar    1  UNL1        0.0697
     18 C         141.7964  141.2797  169.9720 C.ar    1  UNL1        0.0104
     19 C         142.4163  140.0601  169.3569 C.ar    1  UNL1        0.0020
     20 C         142.5265  139.9460  167.8653 C.ar    1  UNL1        0.0147
     21 C         142.0168  141.0514  166.9888 C.ar    1  UNL1        0.0504
     22 C         141.3969  142.2710  167.6039 C.ar    1  UNL1        0.0249
     23 N         140.0469  144.8243  170.3257 N.1     1  UNL1       -0.1908
     24 C         140.6668  143.6047  169.7106 C.1     1  UNL1        0.1005
@<TRIPOS>BOND
     1    23    24    3
     2    24    17    1
     3    17    18   ar
     4    18    19   ar
     5    19    20   ar
     6    20    21   ar
     7    21    15    1
     8    15     1    1
     9     1     2    2
    10     1     3    1
    11     3     4   ar
    12     4     5   ar
    13     5     6   ar
    14     6     7   ar
    15     7     8   ar
    16     1     9    1
    17     9    10   ar
    18    10    11   ar
    19    11    12   ar
    20    12    13   ar
    21    13    14   ar
    22    21    22   ar
    23    22    17   ar
    24     8     3   ar
    25    14     9   ar
    26    15    16    1
@<TRIPOS>MOLECULE
*****
 24 26 0 0 0
SMALL
GASTEIGER

@<TRIPOS>ATOM
      1 P         141.4471  141.7363  164.6883 P.3     1  UNL1        0.2234
      2 O         140.8846  140.8632  163.6060 O.2     1  UNL1       -0.2905
      3 C         142.6984  140.9094  164.7051 C.ar    1  UNL1        0.0496
      4 C         143.9708  141.4628  164.1352 C.ar    1  UNL1        0.0046
      5 C         145.2222  140.6359  164.1520 C.ar    1  UNL1        0.0002
      6 C         145.2012  139.2556  164.7387 C.ar    1  UNL1        0.0000
      7 C         143.9289  138.7021  165.3086 C.ar    1  UNL1        0.0002
      8 C         142.6775  139.5290  165.2918 C.ar    1  UNL1        0.0046
      9 C         140.1957  142.5632  164.6716 C.ar    1  UNL1        0.0496
     10 C         138.8624  141.9021  164.4838 C.ar    1  UNL1        0.0046
     11 C         137.6110  142.7290  164.4670 C.ar    1  UNL1        0.0002
     12 C         137.6929  144.2169  164.6380 C.ar    1  UNL1        0.0000
     13 C         139.0262  144.8780  164.8258 C.ar    1  UNL1        0.0002
     14 C         140.2777  144.0511  164.8425 C.ar    1  UNL1        0.0046
     15 N         142.0095  142.6093  165.7707 N.pl3   1  UNL1       -0.2869
     16 H         142.3953  143.4865  165.5449 H       1  UNL1        0.1540
     17 C         140.7010  141.1053  169.2023 C.ar    1  UNL1        0.0697
     18 C         141.9334  141.2191  170.0499 C.ar    1  UNL1        0.0104
     19 C         143.1911  141.7962  169.4710 C.ar    1  UNL1        0.0020
     20 C         143.2164  142.2596  168.0446 C.ar    1  UNL1        0.0147
     21 C         141.9841  142.1459  167.1971 C.ar    1  UNL1        0.0504
     22 C         140.7263  141.5687  167.7759 C.ar    1  UNL1        0.0249
     23 N         138.1856  139.9511  170.3600 N.1     1  UNL1       -0.1908
     24 C         139.4433  140.5282  169.7811 C.1     1  UNL1        0.1005
@<TRIPOS>BOND
     1    23    24    3
     2    24    17    1
     3    17    18   ar
     4    18    19   ar
     5    19    20   ar
     6    20    21   ar
     7    21    15    1
     8    15     1    1
     9     1     2    2
    10     1     3    1
    11     3     4   ar
    12     4     5   ar
    13     5     6   ar
    14     6     7   ar
    15     7     8   ar
    16     1     9    1
    17     9    10   ar
    18    10    11   ar
    19    11    12   ar
    20    12    13   ar
    21    13    14   ar
    22    21    22   ar
    23    22    17   ar
    24     8     3   ar
    25    14     9   ar
    26    15    16    1
@<TRIPOS>MOLECULE
*****
 24 26 0 0 0
SMALL
GASTEIGER

@<TRIPOS>ATOM
      1 P         141.4240  141.7507  164.6744 P.3     1  UNL1        0.2234
      2 O         140.8600  140.8821  163.5892 O.2     1  UNL1       -0.2905
      3 C         140.1701  142.5738  164.6673 C.ar    1  UNL1        0.0496
      4 C         138.8386  141.9106  164.4743 C.ar    1  UNL1        0.0046
      5 C         137.5847  142.7337  164.4672 C.ar    1  UNL1        0.0002
      6 C         137.6622  144.2201  164.6531 C.ar    1  UNL1        0.0000
      7 C         138.9936  144.8834  164.8462 C.ar    1  UNL1        0.0002
      8 C         140.2476  144.0602  164.8532 C.ar    1  UNL1        0.0046
      9 C         142.6779  140.9276  164.6814 C.ar    1  UNL1        0.0496
     10 C         142.6552  139.5309  165.2283 C.ar    1  UNL1        0.0046
     11 C         143.9091  138.7078  165.2353 C.ar    1  UNL1        0.0002
     12 C         145.1858  139.2812  164.6956 C.ar    1  UNL1        0.0000
     13 C         145.2085  140.6777  164.1488 C.ar    1  UNL1        0.0002
     14 C         143.9546  141.5010  164.1417 C.ar    1  UNL1        0.0046
     15 N         141.9881  142.6192  165.7594 N.pl3   1  UNL1       -0.2869
     16 H         142.3739  143.4971  165.5366 H       1  UNL1        0.1540
     17 C         140.6832  141.1021  169.1866 C.ar    1  UNL1        0.0697
     18 C         141.9166  141.2123  170.0332 C.ar    1  UNL1        0.0104
     19 C         143.1737  141.7915  169.4552 C.ar    1  UNL1        0.0020
     20 C         143.1975  142.2605  168.0306 C.ar    1  UNL1        0.0147
     21 C         141.9642  142.1503  167.1840 C.ar    1  UNL1        0.0504
     22 C         140.7070  141.5710  167.7620 C.ar    1  UNL1        0.0249
     23 N         138.1689  139.9437  170.3426 N.1     1  UNL1       -0.1908
     24 C         139.4261  140.5229  169.7646 C.1     1  UNL1        0.1005
@<TRIPOS>BOND
     1    23    24    3
     2    24    17    1
     3    17    18   ar
     4    18    19   ar
     5    19    20   ar
     6    20    21   ar
     7    21    15    1
     8    15     1    1
     9     1     2    2
    10     1     3    1
    11     3     4   ar
    12     4     5   ar
    13     5     6   ar
    14     6     7   ar
    15     7     8   ar
    16     1     9    1
    17     9    10   ar
    18    10    11   ar
    19    11    12   ar
    20    12    13   ar
    21    13    14   ar
    22    21    22   ar
    23    22    17   ar
    24     8     3   ar
    25    14     9   ar
    26    15    16    1
@<TRIPOS>MOLECULE
*****
 24 26 0 0 0
SMALL
GASTEIGER

@<TRIPOS>ATOM
      1 P         142.2792  141.3407  166.8393 P.3     1  UNL1        0.2234
      2 O         142.8252  140.0761  167.4333 O.2     1  UNL1       -0.2905
      3 C         141.2716  141.4261  167.9472 C.ar    1  UNL1        0.0496
      4 C         140.3546  140.2703  168.2178 C.ar    1  UNL1        0.0046
      5 C         139.3470  140.3557  169.3257 C.ar    1  UNL1        0.0002
      6 C         139.2563  141.5970  170.1630 C.ar    1  UNL1        0.0000
      7 C         140.1733  142.7528  169.8924 C.ar    1  UNL1        0.0002
      8 C         141.1809  142.6674  168.7845 C.ar    1  UNL1        0.0046
      9 C         143.2868  141.2553  165.7314 C.ar    1  UNL1        0.0496
     10 C         144.0156  142.4876  165.2838 C.ar    1  UNL1        0.0046
     11 C         145.0232  142.4022  164.1759 C.ar    1  UNL1        0.0002
     12 C         145.3020  141.0845  163.5156 C.ar    1  UNL1        0.0000
     13 C         144.5732  139.8522  163.9632 C.ar    1  UNL1        0.0002
     14 C         143.5656  139.9376  165.0711 C.ar    1  UNL1        0.0046
     15 N         141.7333  142.6053  166.2453 N.pl3   1  UNL1       -0.2869
     16 H         142.2286  143.4501  166.3456 H       1  UNL1        0.1540
     17 C         138.7461  141.3496  163.9540 C.ar    1  UNL1        0.0697
     18 C         137.8311  142.5373  164.0050 C.ar    1  UNL1        0.0104
     19 C         138.2170  143.7475  164.8028 C.ar    1  UNL1        0.0020
     20 C         139.5177  143.7701  165.5495 C.ar    1  UNL1        0.0147
     21 C         140.4326  142.5826  165.4985 C.ar    1  UNL1        0.0504
     22 C         140.0468  141.3723  164.7008 C.ar    1  UNL1        0.0249
     23 N         137.9744  138.9292  162.3585 N.1     1  UNL1       -0.1908
     24 C         138.3602  140.1394  163.1562 C.1     1  UNL1        0.1005
@<TRIPOS>BOND
     1    23    24    3
     2    24    17    1
     3    17    18   ar
     4    18    19   ar
     5    19    20   ar
     6    20    21   ar
     7    21    15    1
     8    15     1    1
     9     1     2    2
    10     1     3    1
    11     3     4   ar
    12     4     5   ar
    13     5     6   ar
    14     6     7   ar
    15     7     8   ar
    16     1     9    1
    17     9    10   ar
    18    10    11   ar
    19    11    12   ar
    20    12    13   ar
    21    13    14   ar
    22    21    22   ar
    23    22    17   ar
    24     8     3   ar
    25    14     9   ar
    26    15    16    1
@<TRIPOS>MOLECULE
*****
 24 26 0 0 0
SMALL
GASTEIGER

@<TRIPOS>ATOM
      1 P         142.2853  141.3335  166.8156 P.3     1  UNL1        0.2234
      2 O         142.8315  140.0681  167.4077 O.2     1  UNL1       -0.2905
      3 C         143.2905  141.2480  165.7055 C.ar    1  UNL1        0.0496
      4 C         143.5525  139.9343  165.0305 C.ar    1  UNL1        0.0046
      5 C         144.5577  139.8488  163.9204 C.ar    1  UNL1        0.0002
      6 C         145.3009  141.0770  163.4853 C.ar    1  UNL1        0.0000
      7 C         145.0389  142.3906  164.1603 C.ar    1  UNL1        0.0002
      8 C         144.0337  142.4762  165.2705 C.ar    1  UNL1        0.0046
      9 C         141.2802  141.4190  167.9257 C.ar    1  UNL1        0.0496
     10 C         140.3605  140.2650  168.1952 C.ar    1  UNL1        0.0046
     11 C         139.3553  140.3505  169.3053 C.ar    1  UNL1        0.0002
     12 C         139.2698  141.5899  170.1459 C.ar    1  UNL1        0.0000
     13 C         140.1895  142.7438  169.8764 C.ar    1  UNL1        0.0002
     14 C         141.1947  142.6584  168.7663 C.ar    1  UNL1        0.0046
     15 N         141.7392  142.5989  166.2236 N.pl3   1  UNL1       -0.2869
     16 H         142.2368  143.4428  166.3211 H       1  UNL1        0.1540
     17 C         138.7418  141.3512  163.9413 C.ar    1  UNL1        0.0697
     18 C         137.8263  142.5379  164.0021 C.ar    1  UNL1        0.0104
     19 C         138.2151  143.7449  164.8034 C.ar    1  UNL1        0.0020
     20 C         139.5194  143.7652  165.5439 C.ar    1  UNL1        0.0147
     21 C         140.4349  142.5786  165.4831 C.ar    1  UNL1        0.0504
     22 C         140.0461  141.3715  164.6818 C.ar    1  UNL1        0.0249
     23 N         137.9641  138.9373  162.3388 N.1     1  UNL1       -0.1908
     24 C         138.3530  140.1443  163.1401 C.1     1  UNL1        0.1005
@<TRIPOS>BOND
     1    23    24    3
     2    24    17    1
     3    17    18   ar
     4    18    19   ar
     5    19    20   ar
     6    20    21   ar
     7    21    15    1
     8    15     1    1
     9     1     2    2
    10     1     3    1
    11     3     4   ar
    12     4     5   ar
    13     5     6   ar
    14     6     7   ar
    15     7     8   ar
    16     1     9    1
    17     9    10   ar
    18    10    11   ar
    19    11    12   ar
    20    12    13   ar
    21    13    14   ar
    22    21    22   ar
    23    22    17   ar
    24     8     3   ar
    25    14     9   ar
    26    15    16    1
@<TRIPOS>MOLECULE
*****
 24 26 0 0 0
SMALL
GASTEIGER

@<TRIPOS>ATOM
      1 P         141.0911  140.3978  167.0638 P.3     1  UNL1        0.2234
      2 O         139.9080  139.9984  167.8949 O.2     1  UNL1       -0.2905
      3 C         140.6733  139.4249  166.0013 C.ar    1  UNL1        0.0496
      4 C         139.2444  139.3780  165.5473 C.ar    1  UNL1        0.0046
      5 C         138.8266  138.4051  164.4849 C.ar    1  UNL1        0.0002
      6 C         139.8376  137.4791  163.8764 C.ar    1  UNL1        0.0000
      7 C         141.2665  137.5260  164.3304 C.ar    1  UNL1        0.0002
      8 C         141.6844  138.4989  165.3929 C.ar    1  UNL1        0.0046
      9 C         141.5089  141.3708  168.1262 C.ar    1  UNL1        0.0496
     10 C         140.5492  142.4216  168.6003 C.ar    1  UNL1        0.0046
     11 C         140.9670  143.3945  169.6628 C.ar    1  UNL1        0.0002
     12 C         142.3445  143.3166  170.2512 C.ar    1  UNL1        0.0000
     13 C         143.3043  142.2659  169.7772 C.ar    1  UNL1        0.0002
     14 C         142.8865  141.2929  168.7147 C.ar    1  UNL1        0.0046
     15 N         142.2742  140.7973  166.2327 N.pl3   1  UNL1       -0.2869
     16 H         143.0683  140.2167  166.1957 H       1  UNL1        0.1540
     17 C         140.9450  143.8297  164.0445 C.ar    1  UNL1        0.0697
     18 C         142.1935  144.6500  163.9089 C.ar    1  UNL1        0.0104
     19 C         143.4689  144.1861  164.5479 C.ar    1  UNL1        0.0020
     20 C         143.4957  142.9019  165.3225 C.ar    1  UNL1        0.0147
     21 C         142.2473  142.0816  165.4581 C.ar    1  UNL1        0.0504
     22 C         140.9719  142.5454  164.8191 C.ar    1  UNL1        0.0249
     23 N         138.3944  144.7575  162.7665 N.1     1  UNL1       -0.1908
     24 C         139.6697  144.2936  163.4055 C.1     1  UNL1        0.1005
@<TRIPOS>BOND
     1    23    24    3
     2    24    17    1
     3    17    18   ar
     4    18    19   ar
     5    19    20   ar
     6    20    21   ar
     7    21    15    1
     8    15     1    1
     9     1     2    2
    10     1     3    1
    11     3     4   ar
    12     4     5   ar
    13     5     6   ar
    14     6     7   ar
    15     7     8   ar
    16     1     9    1
    17     9    10   ar
    18    10    11   ar
    19    11    12   ar
    20    12    13   ar
    21    13    14   ar
    22    21    22   ar
    23    22    17   ar
    24     8     3   ar
    25    14     9   ar
    26    15    16    1
@<TRIPOS>MOLECULE
*****
 24 26 0 0 0
SMALL
GASTEIGER

@<TRIPOS>ATOM
      1 P         141.1734  140.4063  167.0943 P.3     1  UNL1        0.2234
      2 O         139.9200  140.1050  167.8613 O.2     1  UNL1       -0.2905
      3 C         141.6071  141.3522  168.1746 C.ar    1  UNL1        0.0496
      4 C         142.9627  141.2059  168.7999 C.ar    1  UNL1        0.0046
      5 C         143.3964  142.1519  169.8802 C.ar    1  UNL1        0.0002
      6 C         142.4745  143.2441  170.3353 C.ar    1  UNL1        0.0000
      7 C         141.1189  143.3904  169.7101 C.ar    1  UNL1        0.0002
      8 C         140.6852  142.4445  168.6297 C.ar    1  UNL1        0.0046
      9 C         140.7398  139.4604  166.0140 C.ar    1  UNL1        0.0496
     10 C         141.7186  138.4809  165.4373 C.ar    1  UNL1        0.0046
     11 C         141.2849  137.5350  164.3570 C.ar    1  UNL1        0.0002
     12 C         139.8724  137.5685  163.8533 C.ar    1  UNL1        0.0000
     13 C         138.8936  138.5479  164.4300 C.ar    1  UNL1        0.0002
     14 C         139.3272  139.4939  165.5104 C.ar    1  UNL1        0.0046
     15 N         142.4268  140.7076  166.3274 N.pl3   1  UNL1       -0.2869
     16 H         143.1668  140.0583  166.3190 H       1  UNL1        0.1540
     17 C         141.4722  143.8974  164.1678 C.ar    1  UNL1        0.0697
     18 C         142.8045  144.5790  164.0648 C.ar    1  UNL1        0.0104
     19 C         144.0108  143.9701  164.7159 C.ar    1  UNL1        0.0020
     20 C         143.8849  142.6796  165.4701 C.ar    1  UNL1        0.0147
     21 C         142.5527  141.9981  165.5732 C.ar    1  UNL1        0.0504
     22 C         141.3463  142.6069  164.9220 C.ar    1  UNL1        0.0249
     23 N         139.0596  145.1152  162.8655 N.1     1  UNL1       -0.1908
     24 C         140.2659  144.5063  163.5166 C.1     1  UNL1        0.1005
@<TRIPOS>BOND
     1    23    24    3
     2    24    17    1
     3    17    18   ar
     4    18    19   ar
     5    19    20   ar
     6    20    21   ar
     7    21    15    1
     8    15     1    1
     9     1     2    2
    10     1     3    1
    11     3     4   ar
    12     4     5   ar
    13     5     6   ar
    14     6     7   ar
    15     7     8   ar
    16     1     9    1
    17     9    10   ar
    18    10    11   ar
    19    11    12   ar
    20    12    13   ar
    21    13    14   ar
    22    21    22   ar
    23    22    17   ar
    24     8     3   ar
    25    14     9   ar
    26    15    16    1
@<TRIPOS>MOLECULE
*****
 24 26 0 0 0
SMALL
GASTEIGER

@<TRIPOS>ATOM
      1 P         139.5850  140.2524  166.5493 P.3     1  UNL1        0.2234
      2 O         138.5289  139.4474  167.2470 O.2     1  UNL1       -0.2905
      3 C         139.1854  139.6412  165.2391 C.ar    1  UNL1        0.0496
      4 C         139.3200  138.1620  165.0293 C.ar    1  UNL1        0.0046
      5 C         138.9204  137.5509  163.7191 C.ar    1  UNL1        0.0002
      6 C         138.3862  138.4189  162.6185 C.ar    1  UNL1        0.0000
      7 C         138.2517  139.8980  162.8282 C.ar    1  UNL1        0.0002
      8 C         138.6513  140.5093  164.1385 C.ar    1  UNL1        0.0046
      9 C         139.9846  140.8635  167.8596 C.ar    1  UNL1        0.0496
     10 C         140.0346  140.0177  169.0974 C.ar    1  UNL1        0.0046
     11 C         140.4342  140.6289  170.4077 C.ar    1  UNL1        0.0002
     12 C         140.7839  142.0857  170.4802 C.ar    1  UNL1        0.0000
     13 C         140.7339  142.9315  169.2424 C.ar    1  UNL1        0.0002
     14 C         140.3343  142.3204  167.9320 C.ar    1  UNL1        0.0046
     15 N         140.6411  141.0574  165.8518 N.pl3   1  UNL1       -0.2869
     16 H         140.4925  142.0138  165.6720 H       1  UNL1        0.1540
     17 C         143.8325  138.6983  165.8681 C.ar    1  UNL1        0.0697
     18 C         144.4888  139.1005  164.5806 C.ar    1  UNL1        0.0104
     19 C         143.8627  140.1550  163.7170 C.ar    1  UNL1        0.0020
     20 C         142.5801  140.8072  164.1407 C.ar    1  UNL1        0.0147
     21 C         141.9237  140.4051  165.4281 C.ar    1  UNL1        0.0504
     22 C         142.5499  139.3506  166.2918 C.ar    1  UNL1        0.0249
     23 N         145.0849  136.5894  167.5954 N.1     1  UNL1       -0.1908
     24 C         144.4587  137.6438  166.7318 C.1     1  UNL1        0.1005
@<TRIPOS>BOND
     1    23    24    3
     2    24    17    1
     3    17    18   ar
     4    18    19   ar
     5    19    20   ar
     6    20    21   ar
     7    21    15    1
     8    15     1    1
     9     1     2    2
    10     1     3    1
    11     3     4   ar
    12     4     5   ar
    13     5     6   ar
    14     6     7   ar
    15     7     8   ar
    16     1     9    1
    17     9    10   ar
    18    10    11   ar
    19    11    12   ar
    20    12    13   ar
    21    13    14   ar
    22    21    22   ar
    23    22    17   ar
    24     8     3   ar
    25    14     9   ar
    26    15    16    1
