@<TRIPOS>MOLECULE
*****
 35 39 0 0 0
SMALL
GASTEIGER

@<TRIPOS>ATOM
      1 C         142.9157  137.6208  160.5761 C.3     1  UNL1        0.0730
      2 C         139.7346  139.5560  166.9965 C.ar    1  UNL1        0.0206
      3 C         138.4611  139.1603  166.3096 C.ar    1  UNL1        0.0013
      4 C         138.4960  138.6568  164.8970 C.ar    1  UNL1       -0.0045
      5 C         139.8045  138.5490  164.1714 C.ar    1  UNL1       -0.0247
      6 C         141.0778  138.9447  164.8583 C.ar    1  UNL1       -0.0246
      7 C         141.0429  139.4482  166.2708 C.ar    1  UNL1       -0.0029
      8 C         142.4782  138.9154  164.3215 C.3     1  UNL1        0.0433
      9 C         142.9509  138.4833  162.9650 C.3     1  UNL1        0.0768
     10 N         142.1401  137.9737  161.8106 N.3     1  UNL1       -0.2720
     11 C         140.6563  137.7703  161.7273 C.3     1  UNL1        0.0768
     12 C         139.6168  138.0264  162.7780 C.3     1  UNL1        0.0433
     13 C         141.0543  141.9800  171.4980 C.3     1  UNL1        0.0754
     14 C         140.3061  141.1737  170.4782 C.ar    1  UNL1        0.1548
     15 C         140.7478  140.9046  169.0701 C.ar    1  UNL1        0.0580
     16 C         139.6996  140.0595  168.4091 C.ar    1  UNL1        0.1227
     17 N         138.6102  139.8061  169.4086 N.ar    1  UNL1       -0.0774
     18 O         138.9851  140.4947  170.6873 O.2     1  UNL1       -0.3578
     19 C         142.8876  138.5336  159.3861 C.3     1  UNL1        0.0294
     20 C         141.7567  138.4511  158.4040 C.3     1  UNL1        0.0666
     21 S         140.8928  139.6512  158.1525 S.3     1  UNL1       -0.0756
     22 C         139.9521  140.1344  159.2162 C.ar    1  UNL1        0.1932
     23 N         138.5409  139.6698  159.4226 N.ar    1  UNL1       -0.1221
     24 N         137.9740  140.4153  160.5942 N.ar    1  UNL1       -0.1282
     25 C         139.0349  141.3407  161.1121 C.ar    1  UNL1        0.1668
     26 N         140.2575  141.1671  160.2604 N.ar    1  UNL1       -0.2884
     27 C         141.5572  141.8979  160.4242 C.3     1  UNL1        0.1340
     28 C         138.8975  142.2755  162.2770 C.ar    1  UNL1        0.0368
     29 C         137.8593  143.3579  162.2516 C.ar    1  UNL1        0.0040
     30 C         137.7218  144.2928  163.4166 C.ar    1  UNL1        0.0123
     31 C         138.6225  144.1453  164.6070 C.ar    1  UNL1        0.0682
     32 CL        138.4850  145.0802  165.7719 Cl      1  UNL1       -0.0814
     33 C         139.6606  143.0629  164.6324 C.ar    1  UNL1        0.0683
     34 CL        140.5613  142.9154  165.8227 Cl      1  UNL1       -0.0814
     35 C         139.7981  142.1281  163.4674 C.ar    1  UNL1        0.0153
@<TRIPOS>BOND
     1    13    14    1
     2    14    15   ar
     3    15    16   ar
     4    16     2    1
     5     2     3   ar
     6     3     4   ar
     7     4     5   ar
     8     5     6   ar
     9     6     7   ar
    10     6     8    1
    11     8     9    1
    12     9    10    1
    13    10     1    1
    14     1    19    1
    15    19    20    1
    16    20    21    1
    17    21    22    1
    18    22    23   ar
    19    23    24   ar
    20    24    25   ar
    21    25    28    1
    22    28    29   ar
    23    29    30   ar
    24    30    31   ar
    25    31    32    1
    26    31    33   ar
    27    33    34    1
    28    33    35   ar
    29    25    26   ar
    30    26    27    1
    31    10    11    1
    32    11    12    1
    33    16    17   ar
    34    17    18   ar
    35    18    14   ar
    36     7     2   ar
    37    26    22   ar
    38    12     5    1
    39    35    28   ar
@<TRIPOS>MOLECULE
*****
 35 39 0 0 0
SMALL
GASTEIGER

@<TRIPOS>ATOM
      1 C         138.4404  142.4915  159.7973 C.3     1  UNL1        0.0730
      2 C         139.2162  140.1885  166.8102 C.ar    1  UNL1        0.0206
      3 C         138.7519  138.8692  166.2679 C.ar    1  UNL1        0.0013
      4 C         138.4240  138.7308  164.8107 C.ar    1  UNL1       -0.0045
      5 C         138.5606  139.9117  163.8958 C.ar    1  UNL1       -0.0247
      6 C         139.0249  141.2308  164.4381 C.ar    1  UNL1       -0.0246
      7 C         139.3527  141.3693  165.8952 C.ar    1  UNL1       -0.0029
      8 C         139.2281  142.5239  163.7055 C.3     1  UNL1        0.0433
      9 C         139.0170  142.8171  162.2495 C.3     1  UNL1        0.0768
     10 N         138.5508  141.8897  161.1669 N.3     1  UNL1       -0.2720
     11 C         138.1804  140.4400  161.2724 C.3     1  UNL1        0.0768
     12 C         138.1847  139.5597  162.4870 C.3     1  UNL1        0.0433
     13 C         141.5562  141.6407  171.3153 C.3     1  UNL1        0.0754
     14 C         140.6195  140.9943  170.3382 C.ar    1  UNL1        0.1548
     15 C         140.6609  141.1438  168.8461 C.ar    1  UNL1        0.0580
     16 C         139.5440  140.3268  168.2674 C.ar    1  UNL1        0.1227
     17 N         138.8124  139.6724  169.4016 N.ar    1  UNL1       -0.0774
     18 O         139.4771  140.0849  170.6814 O.2     1  UNL1       -0.3578
     19 C         139.6149  143.2030  159.1937 C.3     1  UNL1        0.0294
     20 C         140.3959  142.5571  158.0879 C.3     1  UNL1        0.0666
     21 S         141.6264  141.7602  158.4051 S.3     1  UNL1       -0.0756
     22 C         141.6065  140.7642  159.5266 C.ar    1  UNL1        0.1932
     23 N         141.1765  139.3308  159.4252 N.ar    1  UNL1       -0.1221
     24 N         141.3173  138.7074  160.7823 N.ar    1  UNL1       -0.1282
     25 C         141.8344  139.7557  161.7224 C.ar    1  UNL1        0.1668
     26 N         142.0131  141.0269  160.9463 N.ar    1  UNL1       -0.2884
     27 C         142.5110  142.3315  161.4939 C.3     1  UNL1        0.1340
     28 C         142.1222  139.5661  163.1822 C.ar    1  UNL1        0.0368
     29 C         141.9731  138.2101  163.8061 C.ar    1  UNL1        0.0040
     30 C         142.2609  138.0205  165.2660 C.ar    1  UNL1        0.0123
     31 C         142.6979  139.1868  166.1020 C.ar    1  UNL1        0.0682
     32 CL        142.9857  138.9972  167.5619 Cl      1  UNL1       -0.0814
     33 C         142.8470  140.5427  165.4781 C.ar    1  UNL1        0.0683
     34 CL        143.2839  141.7090  166.3140 Cl      1  UNL1       -0.0814
     35 C         142.5591  140.7323  164.0182 C.ar    1  UNL1        0.0153
@<TRIPOS>BOND
     1    13    14    1
     2    14    15   ar
     3    15    16   ar
     4    16     2    1
     5     2     3   ar
     6     3     4   ar
     7     4     5   ar
     8     5     6   ar
     9     6     7   ar
    10     6     8    1
    11     8     9    1
    12     9    10    1
    13    10     1    1
    14     1    19    1
    15    19    20    1
    16    20    21    1
    17    21    22    1
    18    22    23   ar
    19    23    24   ar
    20    24    25   ar
    21    25    28    1
    22    28    29   ar
    23    29    30   ar
    24    30    31   ar
    25    31    32    1
    26    31    33   ar
    27    33    34    1
    28    33    35   ar
    29    25    26   ar
    30    26    27    1
    31    10    11    1
    32    11    12    1
    33    16    17   ar
    34    17    18   ar
    35    18    14   ar
    36     7     2   ar
    37    26    22   ar
    38    12     5    1
    39    35    28   ar
@<TRIPOS>MOLECULE
*****
 35 39 0 0 0
SMALL
GASTEIGER

@<TRIPOS>ATOM
      1 C         143.3625  142.2254  168.9957 C.3     1  UNL1        0.0730
      2 C         140.0159  144.0501  162.6273 C.ar    1  UNL1        0.0206
      3 C         138.7980  144.2067  163.4888 C.ar    1  UNL1        0.0013
      4 C         138.8849  143.9501  164.9642 C.ar    1  UNL1       -0.0045
      5 C         140.1898  143.5370  165.5780 C.ar    1  UNL1       -0.0247
      6 C         141.4076  143.3806  164.7165 C.ar    1  UNL1       -0.0246
      7 C         141.3208  143.6371  163.2411 C.ar    1  UNL1       -0.0029
      8 C         142.7953  142.9807  165.1223 C.3     1  UNL1        0.0433
      9 C         143.3076  142.6387  166.4901 C.3     1  UNL1        0.0768
     10 N         142.5590  142.6119  167.7895 N.3     1  UNL1       -0.2720
     11 C         141.1130  142.9207  168.0424 C.3     1  UNL1        0.0768
     12 C         140.0586  143.3324  167.0581 C.3     1  UNL1        0.0433
     13 C         139.7116  143.3017  157.4093 C.3     1  UNL1        0.0754
     14 C         139.7890  143.9627  158.7534 C.ar    1  UNL1        0.1548
     15 C         139.8681  143.2619  160.0774 C.ar    1  UNL1        0.0580
     16 C         139.9289  144.3067  161.1519 C.ar    1  UNL1        0.1227
     17 N         139.8875  145.6532  160.4922 N.ar    1  UNL1       -0.0774
     18 O         139.8011  145.4406  159.0099 O.2     1  UNL1       -0.3578
     19 C         142.7358  142.2630  170.3580 C.3     1  UNL1        0.0294
     20 C         142.0784  141.0353  170.9154 C.3     1  UNL1        0.0666
     21 S         141.9294  139.8111  170.0615 S.3     1  UNL1       -0.0756
     22 C         140.7646  139.6875  169.1245 C.ar    1  UNL1        0.1932
     23 N         139.3154  139.7560  169.5054 N.ar    1  UNL1       -0.1221
     24 N         138.4997  139.5846  168.2584 N.ar    1  UNL1       -0.1282
     25 C         139.4447  139.4101  167.1067 C.ar    1  UNL1        0.1668
     26 N         140.8446  139.4737  167.6420 N.ar    1  UNL1       -0.2884
     27 C         142.1033  139.3459  166.8361 C.3     1  UNL1        0.1340
     28 C         139.0579  139.2075  165.6717 C.ar    1  UNL1        0.0368
     29 C         139.3185  137.8901  165.0034 C.ar    1  UNL1        0.0040
     30 C         138.9317  137.6875  163.5684 C.ar    1  UNL1        0.0123
     31 C         138.2843  138.8023  162.8015 C.ar    1  UNL1        0.0682
     32 CL        137.8975  138.5997  161.3665 Cl      1  UNL1       -0.0814
     33 C         138.0237  140.1197  163.4698 C.ar    1  UNL1        0.0683
     34 CL        137.3763  141.2345  162.7030 Cl      1  UNL1       -0.0814
     35 C         138.4105  140.3223  164.9048 C.ar    1  UNL1        0.0153
@<TRIPOS>BOND
     1    13    14    1
     2    14    15   ar
     3    15    16   ar
     4    16     2    1
     5     2     3   ar
     6     3     4   ar
     7     4     5   ar
     8     5     6   ar
     9     6     7   ar
    10     6     8    1
    11     8     9    1
    12     9    10    1
    13    10     1    1
    14     1    19    1
    15    19    20    1
    16    20    21    1
    17    21    22    1
    18    22    23   ar
    19    23    24   ar
    20    24    25   ar
    21    25    28    1
    22    28    29   ar
    23    29    30   ar
    24    30    31   ar
    25    31    32    1
    26    31    33   ar
    27    33    34    1
    28    33    35   ar
    29    25    26   ar
    30    26    27    1
    31    10    11    1
    32    11    12    1
    33    16    17   ar
    34    17    18   ar
    35    18    14   ar
    36     7     2   ar
    37    26    22   ar
    38    12     5    1
    39    35    28   ar
@<TRIPOS>MOLECULE
*****
 35 39 0 0 0
SMALL
GASTEIGER

@<TRIPOS>ATOM
      1 C         141.7051  145.4405  158.9490 C.3     1  UNL1        0.0730
      2 C         140.6214  143.0810  165.9021 C.ar    1  UNL1        0.0206
      3 C         139.4393  144.0039  165.8692 C.ar    1  UNL1        0.0013
      4 C         139.1429  144.7993  164.6324 C.ar    1  UNL1       -0.0045
      5 C         140.0286  144.6717  163.4285 C.ar    1  UNL1       -0.0247
      6 C         141.2106  143.7489  163.4614 C.ar    1  UNL1       -0.0246
      7 C         141.5070  142.9535  164.6981 C.ar    1  UNL1       -0.0029
      8 C         142.2136  143.4749  162.3802 C.3     1  UNL1        0.0433
      9 C         142.2823  144.0562  160.9991 C.3     1  UNL1        0.0768
     10 N         141.3649  145.0549  160.3582 N.3     1  UNL1       -0.2720
     11 C         140.1523  145.7191  160.9399 C.3     1  UNL1        0.0768
     12 C         139.5575  145.5486  162.3063 C.3     1  UNL1        0.0433
     13 C         142.5332  139.3960  169.1649 C.3     1  UNL1        0.0754
     14 C         141.7965  140.5919  168.6387 C.ar    1  UNL1        0.1548
     15 C         141.7760  141.0578  167.2129 C.ar    1  UNL1        0.0580
     16 C         140.9177  142.2857  167.1388 C.ar    1  UNL1        0.1227
     17 N         140.4078  142.5788  168.5187 N.ar    1  UNL1       -0.0774
     18 O         140.9509  141.5320  169.4456 O.2     1  UNL1       -0.3578
     19 C         142.1803  144.3986  157.9802 C.3     1  UNL1        0.0294
     20 C         141.1910  143.6585  157.1295 C.3     1  UNL1        0.0666
     21 S         140.6230  142.3535  157.6030 S.3     1  UNL1       -0.0756
     22 C         139.8337  142.2973  158.8773 C.ar    1  UNL1        0.1932
     23 N         138.5875  143.0764  159.1776 N.ar    1  UNL1       -0.1221
     24 N         138.1355  142.7129  160.5609 N.ar    1  UNL1       -0.1282
     25 C         139.1023  141.7091  161.1155 C.ar    1  UNL1        0.1668
     26 N         140.1519  141.4522  160.0750 N.ar    1  UNL1       -0.2884
     27 C         141.3153  140.5149  160.2089 C.3     1  UNL1        0.1340
     28 C         139.0320  141.0737  162.4725 C.ar    1  UNL1        0.0368
     29 C         137.9308  141.4479  163.4197 C.ar    1  UNL1        0.0040
     30 C         137.8604  140.8125  164.7766 C.ar    1  UNL1        0.0123
     31 C         138.8913  139.8028  165.1864 C.ar    1  UNL1        0.0682
     32 CL        138.8209  139.1674  166.5433 Cl      1  UNL1       -0.0814
     33 C         139.9925  139.4286  164.2392 C.ar    1  UNL1        0.0683
     34 CL        141.0233  138.4190  164.6488 Cl      1  UNL1       -0.0814
     35 C         140.0628  140.0640  162.8822 C.ar    1  UNL1        0.0153
@<TRIPOS>BOND
     1    13    14    1
     2    14    15   ar
     3    15    16   ar
     4    16     2    1
     5     2     3   ar
     6     3     4   ar
     7     4     5   ar
     8     5     6   ar
     9     6     7   ar
    10     6     8    1
    11     8     9    1
    12     9    10    1
    13    10     1    1
    14     1    19    1
    15    19    20    1
    16    20    21    1
    17    21    22    1
    18    22    23   ar
    19    23    24   ar
    20    24    25   ar
    21    25    28    1
    22    28    29   ar
    23    29    30   ar
    24    30    31   ar
    25    31    32    1
    26    31    33   ar
    27    33    34    1
    28    33    35   ar
    29    25    26   ar
    30    26    27    1
    31    10    11    1
    32    11    12    1
    33    16    17   ar
    34    17    18   ar
    35    18    14   ar
    36     7     2   ar
    37    26    22   ar
    38    12     5    1
    39    35    28   ar
@<TRIPOS>MOLECULE
*****
 35 39 0 0 0
SMALL
GASTEIGER

@<TRIPOS>ATOM
      1 C         140.1743  145.6265  160.6153 C.3     1  UNL1        0.0730
      2 C         139.9805  141.0743  166.4741 C.ar    1  UNL1        0.0206
      3 C         138.9096  140.3673  165.6973 C.ar    1  UNL1        0.0013
      4 C         138.5024  140.8769  164.3465 C.ar    1  UNL1       -0.0045
      5 C         139.1662  142.0934  163.7725 C.ar    1  UNL1       -0.0247
      6 C         140.2370  142.8003  164.5493 C.ar    1  UNL1       -0.0246
      7 C         140.6443  142.2908  165.9000 C.ar    1  UNL1       -0.0029
      8 C         141.0206  144.0203  164.1647 C.3     1  UNL1        0.0433
      9 C         140.9267  144.8346  162.9084 C.3     1  UNL1        0.0768
     10 N         140.0262  144.6300  161.7265 N.3     1  UNL1       -0.2720
     11 C         138.9970  143.5606  161.5088 C.3     1  UNL1        0.0768
     12 C         138.6143  142.4317  162.4194 C.3     1  UNL1        0.0433
     13 C         142.8627  139.9054  170.7410 C.3     1  UNL1        0.0754
     14 C         141.7125  140.0273  169.7862 C.ar    1  UNL1        0.1548
     15 C         141.7570  140.6647  168.4289 C.ar    1  UNL1        0.0580
     16 C         140.3877  140.5647  167.8248 C.ar    1  UNL1        0.1227
     17 N         139.4969  139.8655  168.8086 N.ar    1  UNL1       -0.0774
     18 O         140.3157  139.5335  170.0207 O.2     1  UNL1       -0.3578
     19 C         140.2890  145.1555  159.1957 C.3     1  UNL1        0.0294
     20 C         141.6405  144.9998  158.5639 C.3     1  UNL1        0.0666
     21 S         142.2142  143.6308  158.3481 S.3     1  UNL1       -0.0756
     22 C         141.8703  142.5162  159.2911 C.ar    1  UNL1        0.1932
     23 N         140.7938  141.4913  159.0895 N.ar    1  UNL1       -0.1221
     24 N         140.8007  140.5724  160.2751 N.ar    1  UNL1       -0.1282
     25 C         141.8815  141.0295  161.2095 C.ar    1  UNL1        0.1668
     26 N         142.5426  142.2309  160.6013 N.ar    1  UNL1       -0.2884
     27 C         143.6767  143.0099  161.1986 C.3     1  UNL1        0.1340
     28 C         142.2385  140.3964  162.5216 C.ar    1  UNL1        0.0368
     29 C         143.2742  141.0296  163.4027 C.ar    1  UNL1        0.0040
     30 C         143.6313  140.3965  164.7148 C.ar    1  UNL1        0.0123
     31 C         142.9526  139.1303  165.1460 C.ar    1  UNL1        0.0682
     32 CL        143.3097  138.4972  166.4581 Cl      1  UNL1       -0.0814
     33 C         141.9169  138.4971  164.2649 C.ar    1  UNL1        0.0683
     34 CL        141.2382  137.2308  164.6959 Cl      1  UNL1       -0.0814
     35 C         141.5599  139.1301  162.9527 C.ar    1  UNL1        0.0153
@<TRIPOS>BOND
     1    13    14    1
     2    14    15   ar
     3    15    16   ar
     4    16     2    1
     5     2     3   ar
     6     3     4   ar
     7     4     5   ar
     8     5     6   ar
     9     6     7   ar
    10     6     8    1
    11     8     9    1
    12     9    10    1
    13    10     1    1
    14     1    19    1
    15    19    20    1
    16    20    21    1
    17    21    22    1
    18    22    23   ar
    19    23    24   ar
    20    24    25   ar
    21    25    28    1
    22    28    29   ar
    23    29    30   ar
    24    30    31   ar
    25    31    32    1
    26    31    33   ar
    27    33    34    1
    28    33    35   ar
    29    25    26   ar
    30    26    27    1
    31    10    11    1
    32    11    12    1
    33    16    17   ar
    34    17    18   ar
    35    18    14   ar
    36     7     2   ar
    37    26    22   ar
    38    12     5    1
    39    35    28   ar
@<TRIPOS>MOLECULE
*****
 35 39 0 0 0
SMALL
GASTEIGER

@<TRIPOS>ATOM
      1 C         144.8142  142.4613  159.9387 C.3     1  UNL1        0.0730
      2 C         142.8147  139.9224  166.6202 C.ar    1  UNL1        0.0206
      3 C         142.7077  138.6013  165.9178 C.ar    1  UNL1        0.0013
      4 C         143.0154  138.5036  164.4529 C.ar    1  UNL1       -0.0045
      5 C         143.4301  139.7271  163.6905 C.ar    1  UNL1       -0.0247
      6 C         143.5370  141.0480  164.3928 C.ar    1  UNL1       -0.0246
      7 C         143.2293  141.1458  165.8576 C.ar    1  UNL1       -0.0029
      8 C         143.9298  142.3799  163.8254 C.3     1  UNL1        0.0433
      9 C         144.3126  142.7196  162.4153 C.3     1  UNL1        0.0768
     10 N         144.3971  141.8113  161.2246 N.3     1  UNL1       -0.2720
     11 C         144.1199  140.3391  161.1497 C.3     1  UNL1        0.0768
     12 C         143.6895  139.4115  162.2471 C.3     1  UNL1        0.0433
     13 C         140.9788  141.6434  171.2622 C.3     1  UNL1        0.0754
     14 C         141.6631  140.8111  170.2187 C.ar    1  UNL1        0.1548
     15 C         141.7268  141.1144  168.7510 C.ar    1  UNL1        0.0580
     16 C         142.5070  140.0200  168.0850 C.ar    1  UNL1        0.1227
     17 N         142.9254  139.0403  169.1410 N.ar    1  UNL1       -0.0774
     18 O         142.4039  139.5292  170.4596 O.2     1  UNL1       -0.3578
     19 C         143.8784  142.4732  158.7663 C.3     1  UNL1        0.0294
     20 C         142.8932  143.5927  158.6044 C.3     1  UNL1        0.0666
     21 S         141.4410  143.3624  158.9009 S.3     1  UNL1       -0.0756
     22 C         141.0282  142.2300  159.7938 C.ar    1  UNL1        0.1932
     23 N         140.8627  140.7973  159.3814 N.ar    1  UNL1       -0.1221
     24 N         140.4406  140.0133  160.5885 N.ar    1  UNL1       -0.1282
     25 C         140.3453  140.9614  161.7469 C.ar    1  UNL1        0.1668
     26 N         140.7085  142.3314  161.2558 N.ar    1  UNL1       -0.2884
     27 C         140.7454  143.5831  162.0816 C.3     1  UNL1        0.1340
     28 C         139.9553  140.6025  163.1502 C.ar    1  UNL1        0.0368
     29 C         139.9296  141.6588  164.2149 C.ar    1  UNL1        0.0040
     30 C         139.5397  141.3000  165.6181 C.ar    1  UNL1        0.0123
     31 C         139.1754  139.8849  165.9568 C.ar    1  UNL1        0.0682
     32 CL        138.7854  139.5260  167.3600 Cl      1  UNL1       -0.0814
     33 C         139.2011  138.8286  164.8921 C.ar    1  UNL1        0.0683
     34 CL        138.8368  137.4135  165.2306 Cl      1  UNL1       -0.0814
     35 C         139.5910  139.1875  163.4888 C.ar    1  UNL1        0.0153
@<TRIPOS>BOND
     1    13    14    1
     2    14    15   ar
     3    15    16   ar
     4    16     2    1
     5     2     3   ar
     6     3     4   ar
     7     4     5   ar
     8     5     6   ar
     9     6     7   ar
    10     6     8    1
    11     8     9    1
    12     9    10    1
    13    10     1    1
    14     1    19    1
    15    19    20    1
    16    20    21    1
    17    21    22    1
    18    22    23   ar
    19    23    24   ar
    20    24    25   ar
    21    25    28    1
    22    28    29   ar
    23    29    30   ar
    24    30    31   ar
    25    31    32    1
    26    31    33   ar
    27    33    34    1
    28    33    35   ar
    29    25    26   ar
    30    26    27    1
    31    10    11    1
    32    11    12    1
    33    16    17   ar
    34    17    18   ar
    35    18    14   ar
    36     7     2   ar
    37    26    22   ar
    38    12     5    1
    39    35    28   ar
@<TRIPOS>MOLECULE
*****
 35 39 0 0 0
SMALL
GASTEIGER

@<TRIPOS>ATOM
      1 C         139.9508  144.0412  159.5834 C.3     1  UNL1        0.0730
      2 C         142.9266  142.4319  166.1896 C.ar    1  UNL1        0.0206
      3 C         144.0847  143.2478  165.6964 C.ar    1  UNL1        0.0013
      4 C         144.0384  143.8671  164.3309 C.ar    1  UNL1       -0.0045
      5 C         142.8339  143.6705  163.4587 C.ar    1  UNL1       -0.0247
      6 C         141.6759  142.8546  163.9520 C.ar    1  UNL1       -0.0246
      7 C         141.7222  142.2353  165.3173 C.ar    1  UNL1       -0.0029
      8 C         140.3892  142.5367  163.2494 C.3     1  UNL1        0.0433
      9 C         139.9429  142.9562  161.8801 C.3     1  UNL1        0.0768
     10 N         140.6730  143.7971  160.8753 N.3     1  UNL1       -0.2720
     11 C         142.0297  144.4263  160.9914 C.3     1  UNL1        0.0768
     12 C         142.9914  144.3700  162.1412 C.3     1  UNL1        0.0433
     13 C         142.2546  139.0679  170.2035 C.3     1  UNL1        0.0754
     14 C         142.6642  140.2664  169.4001 C.ar    1  UNL1        0.1548
     15 C         142.3849  140.4885  167.9430 C.ar    1  UNL1        0.0580
     16 C         142.9731  141.8127  167.5550 C.ar    1  UNL1        0.1227
     17 N         143.6158  142.4089  168.7721 N.ar    1  UNL1       -0.0774
     18 O         143.4249  141.4533  169.9123 O.2     1  UNL1       -0.3578
     19 C         139.4865  142.8815  158.7530 C.3     1  UNL1        0.0294
     20 C         140.2397  142.4969  157.5141 C.3     1  UNL1        0.0666
     21 S         141.2624  141.4009  157.5680 S.3     1  UNL1       -0.0756
     22 C         142.2094  141.3152  158.7281 C.ar    1  UNL1        0.1932
     23 N         143.5352  142.0084  158.8370 N.ar    1  UNL1       -0.1221
     24 N         144.1421  141.6429  160.1591 N.ar    1  UNL1       -0.1282
     25 C         143.1915  140.7238  160.8673 C.ar    1  UNL1        0.1668
     26 N         141.9970  140.5212  159.9829 N.ar    1  UNL1       -0.2884
     27 C         140.8002  139.6736  160.2979 C.3     1  UNL1        0.1340
     28 C         143.3989  140.1142  162.2220 C.ar    1  UNL1        0.0368
     29 C         144.6745  140.3654  162.9702 C.ar    1  UNL1        0.0040
     30 C         144.8820  139.7558  164.3249 C.ar    1  UNL1        0.0123
     31 C         143.8138  138.8951  164.9316 C.ar    1  UNL1        0.0682
     32 CL        144.0212  138.2855  166.2864 Cl      1  UNL1       -0.0814
     33 C         142.5382  138.6439  164.1835 C.ar    1  UNL1        0.0683
     34 CL        141.4700  137.7832  164.7901 Cl      1  UNL1       -0.0814
     35 C         142.3308  139.2535  162.8287 C.ar    1  UNL1        0.0153
@<TRIPOS>BOND
     1    13    14    1
     2    14    15   ar
     3    15    16   ar
     4    16     2    1
     5     2     3   ar
     6     3     4   ar
     7     4     5   ar
     8     5     6   ar
     9     6     7   ar
    10     6     8    1
    11     8     9    1
    12     9    10    1
    13    10     1    1
    14     1    19    1
    15    19    20    1
    16    20    21    1
    17    21    22    1
    18    22    23   ar
    19    23    24   ar
    20    24    25   ar
    21    25    28    1
    22    28    29   ar
    23    29    30   ar
    24    30    31   ar
    25    31    32    1
    26    31    33   ar
    27    33    34    1
    28    33    35   ar
    29    25    26   ar
    30    26    27    1
    31    10    11    1
    32    11    12    1
    33    16    17   ar
    34    17    18   ar
    35    18    14   ar
    36     7     2   ar
    37    26    22   ar
    38    12     5    1
    39    35    28   ar
@<TRIPOS>MOLECULE
*****
 35 39 0 0 0
SMALL
GASTEIGER

@<TRIPOS>ATOM
      1 C         138.0953  140.7914  159.0519 C.3     1  UNL1        0.0730
      2 C         138.8707  139.5399  166.3264 C.ar    1  UNL1        0.0206
      3 C         138.9465  138.0991  165.9158 C.ar    1  UNL1        0.0013
      4 C         138.8414  137.7257  164.4668 C.ar    1  UNL1       -0.0045
      5 C         138.6604  138.7930  163.4285 C.ar    1  UNL1       -0.0247
      6 C         138.5845  140.2336  163.8391 C.ar    1  UNL1       -0.0246
      7 C         138.6897  140.6071  165.2880 C.ar    1  UNL1       -0.0029
      8 C         138.4081  141.4451  162.9724 C.3     1  UNL1        0.0433
      9 C         138.2639  141.5150  161.4809 C.3     1  UNL1        0.0768
     10 N         138.2605  140.3909  160.4880 N.3     1  UNL1       -0.2720
     11 C         138.4006  138.9190  160.7411 C.3     1  UNL1        0.0768
     12 C         138.5785  138.2079  162.0497 C.3     1  UNL1        0.0433
     13 C         140.4741  141.7779  170.8320 C.3     1  UNL1        0.0754
     14 C         139.7128  140.9419  169.8464 C.ar    1  UNL1        0.1548
     15 C         139.9685  140.8676  168.3702 C.ar    1  UNL1        0.0580
     16 C         138.9758  139.9132  167.7754 C.ar    1  UNL1        0.1227
     17 N         138.1067  139.3977  168.8840 N.ar    1  UNL1       -0.0774
     18 O         138.5622  140.0335  170.1639 O.2     1  UNL1       -0.3578
     19 C         139.2794  140.7871  158.1310 C.3     1  UNL1        0.0294
     20 C         139.9834  142.0718  157.8084 C.3     1  UNL1        0.0666
     21 S         141.3322  142.3567  158.3993 S.3     1  UNL1       -0.0756
     22 C         141.4812  142.5229  159.8827 C.ar    1  UNL1        0.1932
     23 N         141.3429  143.8078  160.6442 N.ar    1  UNL1       -0.1221
     24 N         141.5709  143.5125  162.0970 N.ar    1  UNL1       -0.1282
     25 C         141.8501  142.0450  162.2334 C.ar    1  UNL1        0.1668
     26 N         141.7947  141.4334  160.8648 N.ar    1  UNL1       -0.2884
     27 C         142.0142  139.9864  160.5363 C.3     1  UNL1        0.1340
     28 C         142.1348  141.3170  163.5136 C.ar    1  UNL1        0.0368
     29 C         142.4670  142.0877  164.7568 C.ar    1  UNL1        0.0040
     30 C         142.7517  141.3596  166.0370 C.ar    1  UNL1        0.0123
     31 C         142.7042  139.8609  166.0740 C.ar    1  UNL1        0.0682
     32 CL        142.9888  139.1328  167.3542 Cl      1  UNL1       -0.0814
     33 C         142.3719  139.0902  164.8308 C.ar    1  UNL1        0.0683
     34 CL        142.3243  137.5914  164.8677 Cl      1  UNL1       -0.0814
     35 C         142.0873  139.8182  163.5506 C.ar    1  UNL1        0.0153
@<TRIPOS>BOND
     1    13    14    1
     2    14    15   ar
     3    15    16   ar
     4    16     2    1
     5     2     3   ar
     6     3     4   ar
     7     4     5   ar
     8     5     6   ar
     9     6     7   ar
    10     6     8    1
    11     8     9    1
    12     9    10    1
    13    10     1    1
    14     1    19    1
    15    19    20    1
    16    20    21    1
    17    21    22    1
    18    22    23   ar
    19    23    24   ar
    20    24    25   ar
    21    25    28    1
    22    28    29   ar
    23    29    30   ar
    24    30    31   ar
    25    31    32    1
    26    31    33   ar
    27    33    34    1
    28    33    35   ar
    29    25    26   ar
    30    26    27    1
    31    10    11    1
    32    11    12    1
    33    16    17   ar
    34    17    18   ar
    35    18    14   ar
    36     7     2   ar
    37    26    22   ar
    38    12     5    1
    39    35    28   ar
@<TRIPOS>MOLECULE
*****
 35 39 0 0 0
SMALL
GASTEIGER

@<TRIPOS>ATOM
      1 C         143.3399  142.1135  169.1632 C.3     1  UNL1        0.0730
      2 C         142.8596  139.4173  162.2649 C.ar    1  UNL1        0.0206
      3 C         142.5239  138.1285  162.9551 C.ar    1  UNL1        0.0013
      4 C         142.4701  138.0718  164.4531 C.ar    1  UNL1       -0.0045
      5 C         142.7520  139.3039  165.2608 C.ar    1  UNL1       -0.0247
      6 C         143.0876  140.5926  164.5707 C.ar    1  UNL1       -0.0246
      7 C         143.1414  140.6494  163.0727 C.ar    1  UNL1       -0.0029
      8 C         143.3998  141.9268  165.1811 C.3     1  UNL1        0.0433
      9 C         143.4535  142.3016  166.6326 C.3     1  UNL1        0.0768
     10 N         143.2082  141.4349  167.8319 N.3     1  UNL1       -0.2720
     11 C         142.8487  139.9793  167.8762 C.3     1  UNL1        0.0768
     12 C         142.6456  139.0309  166.7320 C.3     1  UNL1        0.0433
     13 C         141.4903  140.1163  157.2135 C.3     1  UNL1        0.0754
     14 C         142.2840  139.7952  158.4450 C.ar    1  UNL1        0.1548
     15 C         141.7925  139.8861  159.8594 C.ar    1  UNL1        0.0580
     16 C         142.9134  139.4739  160.7670 C.ar    1  UNL1        0.1227
     17 N         144.0976  139.1283  159.9136 N.ar    1  UNL1       -0.0774
     18 O         143.7086  139.3268  158.4786 O.2     1  UNL1       -0.3578
     19 C         142.5062  141.6568  170.3236 C.3     1  UNL1        0.0294
     20 C         141.4019  142.5289  170.8431 C.3     1  UNL1        0.0666
     21 S         140.0816  142.5702  170.1324 S.3     1  UNL1       -0.0756
     22 C         139.6825  141.4441  169.2254 C.ar    1  UNL1        0.1932
     23 N         139.1416  140.1134  169.6573 N.ar    1  UNL1       -0.1221
     24 N         138.8791  139.2979  168.4261 N.ar    1  UNL1       -0.1282
     25 C         139.2577  140.1246  167.2331 C.ar    1  UNL1        0.1668
     26 N         139.7543  141.4511  167.7271 N.ar    1  UNL1       -0.2884
     27 C         140.2377  142.5853  166.8728 C.3     1  UNL1        0.1340
     28 C         139.1574  139.6996  165.7981 C.ar    1  UNL1        0.0368
     29 C         138.8827  138.2646  165.4584 C.ar    1  UNL1        0.0040
     30 C         138.7824  137.8396  164.0234 C.ar    1  UNL1        0.0123
     31 C         138.9568  138.8494  162.9281 C.ar    1  UNL1        0.0682
     32 CL        138.8565  138.4243  161.4930 Cl      1  UNL1       -0.0814
     33 C         139.2315  140.2844  163.2678 C.ar    1  UNL1        0.0683
     34 CL        139.4059  141.2943  162.1725 Cl      1  UNL1       -0.0814
     35 C         139.3318  140.7094  164.7028 C.ar    1  UNL1        0.0153
@<TRIPOS>BOND
     1    13    14    1
     2    14    15   ar
     3    15    16   ar
     4    16     2    1
     5     2     3   ar
     6     3     4   ar
     7     4     5   ar
     8     5     6   ar
     9     6     7   ar
    10     6     8    1
    11     8     9    1
    12     9    10    1
    13    10     1    1
    14     1    19    1
    15    19    20    1
    16    20    21    1
    17    21    22    1
    18    22    23   ar
    19    23    24   ar
    20    24    25   ar
    21    25    28    1
    22    28    29   ar
    23    29    30   ar
    24    30    31   ar
    25    31    32    1
    26    31    33   ar
    27    33    34    1
    28    33    35   ar
    29    25    26   ar
    30    26    27    1
    31    10    11    1
    32    11    12    1
    33    16    17   ar
    34    17    18   ar
    35    18    14   ar
    36     7     2   ar
    37    26    22   ar
    38    12     5    1
    39    35    28   ar
