@<TRIPOS>MOLECULE
*****
 36 39 0 0 0
SMALL
GASTEIGER

@<TRIPOS>ATOM
      1 C         140.8526  142.2422  163.7539 C.3     1  UNL1        0.2551
      2 N         141.2641  142.4692  165.1784 N.2     1  UNL1       -0.2434
      3 C         140.7530  141.7966  166.4179 C.2     1  UNL1        0.0795
      4 C         139.7043  140.7309  166.5392 C.ar    1  UNL1        0.0310
      5 C         139.4913  140.3319  167.9693 C.ar    1  UNL1        0.0027
      6 C         138.4815  139.2767  168.3110 C.ar    1  UNL1        0.0001
      7 C         137.6849  138.6204  167.2226 C.ar    1  UNL1        0.0013
      8 C         137.8979  139.0194  165.7925 C.ar    1  UNL1        0.0150
      9 C         138.9077  140.0747  165.4508 C.ar    1  UNL1        0.0556
     10 N         138.9630  140.3220  163.9723 N.am    1  UNL1       -0.2474
     11 C         139.8285  141.2866  163.2171 C.2     1  UNL1        0.2714
     12 O         139.6458  141.2971  161.7284 O.2     1  UNL1       -0.2705
     13 C         141.3726  142.2495  167.7067 C.ar    1  UNL1        0.0174
     14 C         140.5865  143.1025  168.6578 C.ar    1  UNL1        0.0015
     15 C         141.2061  143.5555  169.9466 C.ar    1  UNL1        0.0000
     16 C         142.6118  143.1554  170.2843 C.ar    1  UNL1        0.0000
     17 C         143.3978  142.3025  169.3333 C.ar    1  UNL1        0.0000
     18 C         142.7783  141.8495  168.0445 C.ar    1  UNL1        0.0015
     19 O         139.4742  144.6231  162.5575 O.2     1  UNL1       -0.2747
     20 C         140.8695  144.2723  162.1327 C.2     1  UNL1        0.2285
     21 N         141.5586  143.0819  162.7309 N.am    1  UNL1       -0.2795
     22 H         142.4743  142.8516  162.4521 H       1  UNL1        0.1516
     23 C         141.5755  145.1120  161.1097 C.3     1  UNL1        0.1122
     24 C         141.3946  144.8239  159.6487 C.ar    1  UNL1       -0.0024
     25 C         140.3045  145.5083  158.8786 C.ar    1  UNL1       -0.0021
     26 C         140.1237  145.2202  157.4176 C.ar    1  UNL1        0.0111
     27 C         141.0330  144.2476  156.7268 C.ar    1  UNL1        0.0585
     28 CL        140.8522  143.9595  155.2659 Cl      1  UNL1       -0.0822
     29 C         142.1231  143.5631  157.4970 C.ar    1  UNL1        0.0225
     30 C         142.3039  143.8513  158.9579 C.ar    1  UNL1        0.0550
     31 CL        143.3941  143.1668  159.7281 Cl      1  UNL1       -0.0825
     32 C         138.0292  139.4954  163.1388 C.3     1  UNL1        0.2017
     33 C         138.5787  138.4964  162.1640 C.3     1  UNL1        0.4160
     34 F         139.1282  137.4975  161.1893 F       1  UNL1       -0.1682
     35 F         139.6780  137.8150  162.9237 F       1  UNL1       -0.1682
     36 F         137.5827  138.9497  161.1381 F       1  UNL1       -0.1682
@<TRIPOS>BOND
     1    19    20    2
     2    20    23    1
     3    23    24    1
     4    24    25   ar
     5    25    26   ar
     6    26    27   ar
     7    27    28    1
     8    27    29   ar
     9    29    30   ar
    10    30    31    1
    11    20    21   am
    12     1    21    1
    13     1     2    1
    14     2     3    2
    15     3    13    1
    16    13    14   ar
    17    14    15   ar
    18    15    16   ar
    19    16    17   ar
    20    17    18   ar
    21     3     4    1
    22     4     5   ar
    23     5     6   ar
    24     6     7   ar
    25     7     8   ar
    26     8     9   ar
    27     9    10    1
    28    10    32    1
    29    32    33    1
    30    33    34    1
    31    33    35    1
    32    33    36    1
    33    10    11   am
    34    11    12    2
    35    30    24   ar
    36    11     1    1
    37    18    13   ar
    38     9     4   ar
    39    21    22    1
@<TRIPOS>MOLECULE
*****
 36 39 0 0 0
SMALL
GASTEIGER

@<TRIPOS>ATOM
      1 C         141.9616  140.9367  163.7962 C.3     1  UNL1        0.2551
      2 N         142.0033  141.4760  165.1953 N.2     1  UNL1       -0.2434
      3 C         141.1353  141.1132  166.3636 C.2     1  UNL1        0.0795
      4 C         140.0113  140.1217  166.4215 C.ar    1  UNL1        0.0310
      5 C         139.4016  140.0637  167.7908 C.ar    1  UNL1        0.0027
      6 C         138.2583  139.1319  168.0638 C.ar    1  UNL1        0.0001
      7 C         137.7247  138.2581  166.9676 C.ar    1  UNL1        0.0013
      8 C         138.3343  138.3161  165.5983 C.ar    1  UNL1        0.0150
      9 C         139.4776  139.2479  165.3253 C.ar    1  UNL1        0.0556
     10 N         139.9362  139.1499  163.9005 N.am    1  UNL1       -0.2474
     11 C         141.0417  139.9015  163.2199 C.2     1  UNL1        0.2714
     12 O         141.2555  139.5746  161.7717 O.2     1  UNL1       -0.2705
     13 C         141.4304  141.8379  167.6434 C.ar    1  UNL1        0.0174
     14 C         142.7208  141.5884  168.3663 C.ar    1  UNL1        0.0015
     15 C         143.0159  142.3131  169.6460 C.ar    1  UNL1        0.0000
     16 C         142.0205  143.2873  170.2029 C.ar    1  UNL1        0.0000
     17 C         140.7301  143.5368  169.4801 C.ar    1  UNL1        0.0000
     18 C         140.4350  142.8122  168.2004 C.ar    1  UNL1        0.0015
     19 O         141.2533  143.3027  162.0932 O.2     1  UNL1       -0.2747
     20 C         142.6196  142.6911  161.9965 C.2     1  UNL1        0.2285
     21 N         142.9737  141.5081  162.8480 N.am    1  UNL1       -0.2795
     22 H         143.8704  141.1067  162.7846 H       1  UNL1        0.1516
     23 C         143.6317  143.2626  161.0483 C.3     1  UNL1        0.1122
     24 C         143.6126  142.8652  159.6020 C.ar    1  UNL1       -0.0024
     25 C         144.4779  141.7376  159.1226 C.ar    1  UNL1       -0.0021
     26 C         144.4589  141.3402  157.6763 C.ar    1  UNL1        0.0111
     27 C         143.5745  142.0704  156.7095 C.ar    1  UNL1        0.0585
     28 CL        143.5554  141.6730  155.2632 Cl      1  UNL1       -0.0822
     29 C         142.7092  143.1979  157.1890 C.ar    1  UNL1        0.0225
     30 C         142.7283  143.5953  158.6352 C.ar    1  UNL1        0.0550
     31 CL        141.8629  144.7229  159.1147 Cl      1  UNL1       -0.0825
     32 C         139.1907  138.1709  163.0427 C.3     1  UNL1        0.2017
     33 C         138.2173  138.6645  162.0137 C.3     1  UNL1        0.4160
     34 F         137.2439  139.1581  160.9848 F       1  UNL1       -0.1682
     35 F         137.4977  139.7856  162.7031 F       1  UNL1       -0.1682
     36 F         138.7162  137.6321  161.0466 F       1  UNL1       -0.1682
@<TRIPOS>BOND
     1    19    20    2
     2    20    23    1
     3    23    24    1
     4    24    25   ar
     5    25    26   ar
     6    26    27   ar
     7    27    28    1
     8    27    29   ar
     9    29    30   ar
    10    30    31    1
    11    20    21   am
    12     1    21    1
    13     1     2    1
    14     2     3    2
    15     3    13    1
    16    13    14   ar
    17    14    15   ar
    18    15    16   ar
    19    16    17   ar
    20    17    18   ar
    21     3     4    1
    22     4     5   ar
    23     5     6   ar
    24     6     7   ar
    25     7     8   ar
    26     8     9   ar
    27     9    10    1
    28    10    32    1
    29    32    33    1
    30    33    34    1
    31    33    35    1
    32    33    36    1
    33    10    11   am
    34    11    12    2
    35    30    24   ar
    36    11     1    1
    37    18    13   ar
    38     9     4   ar
    39    21    22    1
@<TRIPOS>MOLECULE
*****
 36 39 0 0 0
SMALL
GASTEIGER

@<TRIPOS>ATOM
      1 C         142.9835  138.3092  160.2804 C.3     1  UNL1        0.2551
      2 N         142.7277  137.4486  159.0787 N.2     1  UNL1       -0.2434
      3 C         142.9042  137.7905  157.6289 C.2     1  UNL1        0.0795
      4 C         143.3801  139.0774  157.0226 C.ar    1  UNL1        0.0310
      5 C         143.4108  138.9993  155.5250 C.ar    1  UNL1        0.0027
      6 C         143.8584  140.1840  154.7213 C.ar    1  UNL1        0.0001
      7 C         144.2753  141.4468  155.4151 C.ar    1  UNL1        0.0013
      8 C         144.2446  141.5249  156.9127 C.ar    1  UNL1        0.0150
      9 C         143.7970  140.3402  157.7165 C.ar    1  UNL1        0.0556
     10 N         143.8410  140.6281  159.1880 N.am    1  UNL1       -0.2474
     11 C         143.4790  139.7242  160.3291 C.2     1  UNL1        0.2714
     12 O         143.6327  140.3132  161.6999 O.2     1  UNL1       -0.2705
     13 C         142.5592  136.7015  156.6568 C.ar    1  UNL1        0.0174
     14 C         143.5899  135.6793  156.2789 C.ar    1  UNL1        0.0015
     15 C         143.2449  134.5903  155.3067 C.ar    1  UNL1        0.0000
     16 C         141.8693  134.5235  154.7125 C.ar    1  UNL1        0.0000
     17 C         140.8386  135.5456  155.0904 C.ar    1  UNL1        0.0000
     18 C         141.1835  136.6347  156.0625 C.ar    1  UNL1        0.0015
     19 O         140.2254  138.4229  161.4551 O.2     1  UNL1       -0.2747
     20 C         141.3284  137.7271  162.1965 C.2     1  UNL1        0.2285
     21 N         142.7074  137.6703  161.6091 N.am    1  UNL1       -0.2795
     22 H         143.4312  137.2137  162.0957 H       1  UNL1        0.1516
     23 C         141.0522  137.0883  163.5253 C.3     1  UNL1        0.1122
     24 C         140.6653  137.9374  164.6998 C.ar    1  UNL1       -0.0024
     25 C         139.2217  138.0732  165.0839 C.ar    1  UNL1       -0.0021
     26 C         138.8348  138.9223  166.2584 C.ar    1  UNL1        0.0111
     27 C         139.8915  139.6355  167.0487 C.ar    1  UNL1        0.0585
     28 CL        139.5046  140.4846  168.2232 Cl      1  UNL1       -0.0822
     29 C         141.3351  139.4997  166.6646 C.ar    1  UNL1        0.0225
     30 C         141.7220  138.6506  165.4901 C.ar    1  UNL1        0.0550
     31 CL        143.1656  138.5148  165.1059 Cl      1  UNL1       -0.0825
     32 C         144.3089  142.0014  159.5688 C.3     1  UNL1        0.2017
     33 C         143.3250  143.0170  160.0695 C.3     1  UNL1        0.4160
     34 F         142.3412  144.0326  160.5701 F       1  UNL1       -0.1682
     35 F         142.1743  142.9098  159.1132 F       1  UNL1       -0.1682
     36 F         144.2656  143.3808  161.1798 F       1  UNL1       -0.1682
@<TRIPOS>BOND
     1    19    20    2
     2    20    23    1
     3    23    24    1
     4    24    25   ar
     5    25    26   ar
     6    26    27   ar
     7    27    28    1
     8    27    29   ar
     9    29    30   ar
    10    30    31    1
    11    20    21   am
    12     1    21    1
    13     1     2    1
    14     2     3    2
    15     3    13    1
    16    13    14   ar
    17    14    15   ar
    18    15    16   ar
    19    16    17   ar
    20    17    18   ar
    21     3     4    1
    22     4     5   ar
    23     5     6   ar
    24     6     7   ar
    25     7     8   ar
    26     8     9   ar
    27     9    10    1
    28    10    32    1
    29    32    33    1
    30    33    34    1
    31    33    35    1
    32    33    36    1
    33    10    11   am
    34    11    12    2
    35    30    24   ar
    36    11     1    1
    37    18    13   ar
    38     9     4   ar
    39    21    22    1
@<TRIPOS>MOLECULE
*****
 36 39 0 0 0
SMALL
GASTEIGER

@<TRIPOS>ATOM
      1 C         140.5435  139.1344  158.6107 C.3     1  UNL1        0.2551
      2 N         140.8997  137.8828  157.8647 N.2     1  UNL1       -0.2434
      3 C         142.0188  137.6610  156.8907 C.2     1  UNL1        0.0795
      4 C         143.0580  138.6360  156.4222 C.ar    1  UNL1        0.0310
      5 C         143.9985  138.0043  155.4393 C.ar    1  UNL1        0.0027
      6 C         145.1159  138.8103  154.8461 C.ar    1  UNL1        0.0001
      7 C         145.2927  140.2479  155.2359 C.ar    1  UNL1        0.0013
      8 C         144.3522  140.8796  156.2189 C.ar    1  UNL1        0.0150
      9 C         143.2348  140.0736  156.8120 C.ar    1  UNL1        0.0556
     10 N         142.4161  140.8913  157.7666 N.am    1  UNL1       -0.2474
     11 C         141.2184  140.4734  158.5671 C.2     1  UNL1        0.2714
     12 O         140.6158  141.5346  159.4392 O.2     1  UNL1       -0.2705
     13 C         142.1108  136.2818  156.3082 C.ar    1  UNL1        0.0174
     14 C         143.0320  135.2688  156.9209 C.ar    1  UNL1        0.0015
     15 C         143.1240  133.8896  156.3383 C.ar    1  UNL1        0.0000
     16 C         142.2949  133.5234  155.1431 C.ar    1  UNL1        0.0000
     17 C         141.3738  134.5363  154.5305 C.ar    1  UNL1        0.0000
     18 C         141.2817  135.9155  155.1130 C.ar    1  UNL1        0.0015
     19 O         140.7961  137.7492  161.2598 O.2     1  UNL1       -0.2747
     20 C         139.4816  138.3412  160.8452 C.2     1  UNL1        0.2285
     21 N         139.3554  139.0338  159.5207 N.am    1  UNL1       -0.2795
     22 H         138.4927  139.4223  159.2487 H       1  UNL1        0.1516
     23 C         138.2935  138.2406  161.7553 C.3     1  UNL1        0.1122
     24 C         138.4334  138.5740  163.2111 C.ar    1  UNL1       -0.0024
     25 C         138.9286  137.5360  164.1740 C.ar    1  UNL1       -0.0021
     26 C         139.0686  137.8694  165.6298 C.ar    1  UNL1        0.0111
     27 C         138.7133  139.2409  166.1226 C.ar    1  UNL1        0.0585
     28 CL        138.8532  139.5744  167.5783 Cl      1  UNL1       -0.0822
     29 C         138.2181  140.2789  165.1596 C.ar    1  UNL1        0.0225
     30 C         138.0782  139.9455  163.7039 C.ar    1  UNL1        0.0550
     31 CL        137.5830  140.9835  162.7409 Cl      1  UNL1       -0.0825
     32 C         142.8528  142.3153  157.9441 C.3     1  UNL1        0.2017
     33 C         143.5271  142.7402  159.2149 C.3     1  UNL1        0.4160
     34 F         144.2014  143.1650  160.4857 F       1  UNL1       -0.1682
     35 F         144.5024  141.6355  159.4952 F       1  UNL1       -0.1682
     36 F         142.6902  143.9846  159.2429 F       1  UNL1       -0.1682
@<TRIPOS>BOND
     1    19    20    2
     2    20    23    1
     3    23    24    1
     4    24    25   ar
     5    25    26   ar
     6    26    27   ar
     7    27    28    1
     8    27    29   ar
     9    29    30   ar
    10    30    31    1
    11    20    21   am
    12     1    21    1
    13     1     2    1
    14     2     3    2
    15     3    13    1
    16    13    14   ar
    17    14    15   ar
    18    15    16   ar
    19    16    17   ar
    20    17    18   ar
    21     3     4    1
    22     4     5   ar
    23     5     6   ar
    24     6     7   ar
    25     7     8   ar
    26     8     9   ar
    27     9    10    1
    28    10    32    1
    29    32    33    1
    30    33    34    1
    31    33    35    1
    32    33    36    1
    33    10    11   am
    34    11    12    2
    35    30    24   ar
    36    11     1    1
    37    18    13   ar
    38     9     4   ar
    39    21    22    1
@<TRIPOS>MOLECULE
*****
 36 39 0 0 0
SMALL
GASTEIGER

@<TRIPOS>ATOM
      1 C         139.4587  142.8811  160.0880 C.3     1  UNL1        0.2551
      2 N         139.9962  141.6368  159.4454 N.2     1  UNL1       -0.2434
      3 C         140.0413  140.2432  159.9986 C.2     1  UNL1        0.0795
      4 C         139.5601  139.7497  161.3309 C.ar    1  UNL1        0.0310
      5 C         139.7953  138.2765  161.4871 C.ar    1  UNL1        0.0027
      6 C         139.3853  137.5816  162.7516 C.ar    1  UNL1        0.0001
      7 C         138.7402  138.3598  163.8598 C.ar    1  UNL1        0.0013
      8 C         138.5051  139.8330  163.7036 C.ar    1  UNL1        0.0150
      9 C         138.9150  140.5279  162.4391 C.ar    1  UNL1        0.0556
     10 N         138.5918  141.9919  162.4887 N.am    1  UNL1       -0.2474
     11 C         138.8337  143.0391  161.4425 C.2     1  UNL1        0.2714
     12 O         138.3923  144.4280  161.7975 O.2     1  UNL1       -0.2705
     13 C         140.6477  139.2059  159.1006 C.ar    1  UNL1        0.0174
     14 C         142.0791  138.7975  159.2863 C.ar    1  UNL1        0.0015
     15 C         142.6855  137.7602  158.3883 C.ar    1  UNL1        0.0000
     16 C         141.8606  137.1314  157.3048 C.ar    1  UNL1        0.0000
     17 C         140.4294  137.5397  157.1191 C.ar    1  UNL1        0.0000
     18 C         139.8228  138.5770  158.0170 C.ar    1  UNL1        0.0015
     19 O         142.1041  144.2615  159.7773 O.2     1  UNL1       -0.2747
     20 C         140.8823  144.8231  159.1124 C.2     1  UNL1        0.2285
     21 N         139.5597  144.1328  159.2678 N.am    1  UNL1       -0.2795
     22 H         138.7578  144.5014  158.8314 H       1  UNL1        0.1516
     23 C         140.9832  146.0749  158.2921 C.3     1  UNL1        0.1122
     24 C         141.0529  145.9877  156.7962 C.ar    1  UNL1       -0.0024
     25 C         142.1244  145.1669  156.1419 C.ar    1  UNL1       -0.0021
     26 C         142.1941  145.0798  154.6460 C.ar    1  UNL1        0.0111
     27 C         141.1923  145.8135  153.8045 C.ar    1  UNL1        0.0585
     28 CL        141.2619  145.7264  152.3087 Cl      1  UNL1       -0.0822
     29 C         140.1208  146.6343  154.4589 C.ar    1  UNL1        0.0225
     30 C         140.0512  146.7215  155.9547 C.ar    1  UNL1        0.0550
     31 CL        138.9797  147.5423  156.6092 Cl      1  UNL1       -0.0825
     32 C         137.9404  142.4720  163.7517 C.3     1  UNL1        0.2017
     33 C         138.7251  143.2853  164.7381 C.3     1  UNL1        0.4160
     34 F         139.5099  144.0985  165.7244 F       1  UNL1       -0.1682
     35 F         140.0754  142.6323  164.7541 F       1  UNL1       -0.1682
     36 F         137.5292  144.1610  164.9675 F       1  UNL1       -0.1682
@<TRIPOS>BOND
     1    19    20    2
     2    20    23    1
     3    23    24    1
     4    24    25   ar
     5    25    26   ar
     6    26    27   ar
     7    27    28    1
     8    27    29   ar
     9    29    30   ar
    10    30    31    1
    11    20    21   am
    12     1    21    1
    13     1     2    1
    14     2     3    2
    15     3    13    1
    16    13    14   ar
    17    14    15   ar
    18    15    16   ar
    19    16    17   ar
    20    17    18   ar
    21     3     4    1
    22     4     5   ar
    23     5     6   ar
    24     6     7   ar
    25     7     8   ar
    26     8     9   ar
    27     9    10    1
    28    10    32    1
    29    32    33    1
    30    33    34    1
    31    33    35    1
    32    33    36    1
    33    10    11   am
    34    11    12    2
    35    30    24   ar
    36    11     1    1
    37    18    13   ar
    38     9     4   ar
    39    21    22    1
@<TRIPOS>MOLECULE
*****
 36 39 0 0 0
SMALL
GASTEIGER

@<TRIPOS>ATOM
      1 C         139.8043  139.9377  162.1165 C.3     1  UNL1        0.2551
      2 N         140.7159  141.1123  162.3151 N.2     1  UNL1       -0.2434
      3 C         141.3949  141.5669  163.5730 C.2     1  UNL1        0.0795
      4 C         141.3301  140.9592  164.9429 C.ar    1  UNL1        0.0310
      5 C         142.1630  141.7296  165.9240 C.ar    1  UNL1        0.0027
      6 C         142.2361  141.2877  167.3556 C.ar    1  UNL1        0.0001
      7 C         141.4762  140.0753  167.8059 C.ar    1  UNL1        0.0013
      8 C         140.6433  139.3049  166.8248 C.ar    1  UNL1        0.0150
      9 C         140.5702  139.7469  165.3932 C.ar    1  UNL1        0.0556
     10 N         139.6875  138.8428  164.5849 N.am    1  UNL1       -0.2474
     11 C         139.3466  138.9276  163.1266 C.2     1  UNL1        0.2714
     12 O         138.4264  137.8616  162.6102 O.2     1  UNL1       -0.2705
     13 C         142.2521  142.7910  163.4439 C.ar    1  UNL1        0.0174
     14 C         141.7435  144.1171  163.9266 C.ar    1  UNL1        0.0015
     15 C         142.6007  145.3412  163.7975 C.ar    1  UNL1        0.0000
     16 C         143.9665  145.2393  163.1857 C.ar    1  UNL1        0.0000
     17 C         144.4751  143.9134  162.7031 C.ar    1  UNL1        0.0000
     18 C         143.6179  142.6892  162.8321 C.ar    1  UNL1        0.0015
     19 O         137.7717  141.8438  161.0051 O.2     1  UNL1       -0.2747
     20 C         138.2649  140.7011  160.1678 C.2     1  UNL1        0.2285
     21 N         139.2812  139.7481  160.7235 N.am    1  UNL1       -0.2795
     22 H         139.6049  138.9981  160.1740 H       1  UNL1        0.1516
     23 C         137.7418  140.5115  158.7748 C.3     1  UNL1        0.1122
     24 C         137.8304  141.6320  157.7814 C.ar    1  UNL1       -0.0024
     25 C         138.9490  142.6273  157.8712 C.ar    1  UNL1       -0.0021
     26 C         139.0376  143.7478  156.8778 C.ar    1  UNL1        0.0111
     27 C         138.0075  143.8729  155.7946 C.ar    1  UNL1        0.0585
     28 CL        138.0961  144.9933  154.8013 Cl      1  UNL1       -0.0822
     29 C         136.8889  142.8775  155.7048 C.ar    1  UNL1        0.0225
     30 C         136.8004  141.7571  156.6982 C.ar    1  UNL1        0.0550
     31 CL        135.6817  140.7618  156.6084 Cl      1  UNL1       -0.0825
     32 C         139.0631  137.7030  165.3339 C.3     1  UNL1        0.2017
     33 C         137.9167  137.9573  166.2674 C.3     1  UNL1        0.4160
     34 F         136.7705  138.2117  167.2007 F       1  UNL1       -0.1682
     35 F         137.6084  139.4127  166.0754 F       1  UNL1       -0.1682
     36 F         137.9487  136.5209  166.6980 F       1  UNL1       -0.1682
@<TRIPOS>BOND
     1    19    20    2
     2    20    23    1
     3    23    24    1
     4    24    25   ar
     5    25    26   ar
     6    26    27   ar
     7    27    28    1
     8    27    29   ar
     9    29    30   ar
    10    30    31    1
    11    20    21   am
    12     1    21    1
    13     1     2    1
    14     2     3    2
    15     3    13    1
    16    13    14   ar
    17    14    15   ar
    18    15    16   ar
    19    16    17   ar
    20    17    18   ar
    21     3     4    1
    22     4     5   ar
    23     5     6   ar
    24     6     7   ar
    25     7     8   ar
    26     8     9   ar
    27     9    10    1
    28    10    32    1
    29    32    33    1
    30    33    34    1
    31    33    35    1
    32    33    36    1
    33    10    11   am
    34    11    12    2
    35    30    24   ar
    36    11     1    1
    37    18    13   ar
    38     9     4   ar
    39    21    22    1
@<TRIPOS>MOLECULE
*****
 36 39 0 0 0
SMALL
GASTEIGER

@<TRIPOS>ATOM
      1 C         142.0933  139.2970  159.5063 C.3     1  UNL1        0.2551
      2 N         141.8164  140.7023  159.0608 N.2     1  UNL1       -0.2434
      3 C         142.1974  141.9884  159.7324 C.2     1  UNL1        0.0795
      4 C         142.9492  142.1868  161.0152 C.ar    1  UNL1        0.0310
      5 C         143.1192  143.6432  161.3311 C.ar    1  UNL1        0.0027
      6 C         143.8458  144.0609  162.5751 C.ar    1  UNL1        0.0001
      7 C         144.4024  143.0222  163.5031 C.ar    1  UNL1        0.0013
      8 C         144.2323  141.5658  163.1872 C.ar    1  UNL1        0.0150
      9 C         143.5057  141.1481  161.9432 C.ar    1  UNL1        0.0556
     10 N         143.4479  139.6544  161.8177 N.am    1  UNL1       -0.2474
     11 C         142.8194  138.8306  160.7332 C.2     1  UNL1        0.2714
     12 O         142.9317  137.3439  160.8972 O.2     1  UNL1       -0.2705
     13 C         141.7700  143.2419  159.0280 C.ar    1  UNL1        0.0174
     14 C         140.4596  143.8859  159.3720 C.ar    1  UNL1        0.0015
     15 C         140.0322  145.1394  158.6676 C.ar    1  UNL1        0.0000
     16 C         140.9152  145.7488  157.6193 C.ar    1  UNL1        0.0000
     17 C         142.2254  145.1049  157.2753 C.ar    1  UNL1        0.0000
     18 C         142.6529  143.8514  157.9797 C.ar    1  UNL1        0.0015
     19 O         143.7249  138.3925  157.1568 O.2     1  UNL1       -0.2747
     20 C         142.3913  137.7627  157.4309 C.2     1  UNL1        0.2285
     21 N         141.5756  138.2149  158.6056 N.am    1  UNL1       -0.2795
     22 H         140.7003  137.8016  158.7856 H       1  UNL1        0.1516
     23 C         141.8736  136.6806  156.5303 C.3     1  UNL1        0.1122
     24 C         142.6093  135.3777  156.4236 C.ar    1  UNL1       -0.0024
     25 C         143.3526  134.8369  157.6089 C.ar    1  UNL1       -0.0021
     26 C         144.0883  133.5340  157.5021 C.ar    1  UNL1        0.0111
     27 C         144.0808  132.7721  156.2100 C.ar    1  UNL1        0.0585
     28 CL        144.8164  131.4693  156.1033 Cl      1  UNL1       -0.0822
     29 C         143.3374  133.3130  155.0247 C.ar    1  UNL1        0.0225
     30 C         142.6017  134.6158  155.1315 C.ar    1  UNL1        0.0550
     31 CL        141.8584  135.1568  153.9462 Cl      1  UNL1       -0.0825
     32 C         144.1058  138.8825  162.9229 C.3     1  UNL1        0.2017
     33 C         143.3703  138.6366  164.2069 C.3     1  UNL1        0.4160
     34 F         142.6348  138.3907  165.4908 F       1  UNL1       -0.1682
     35 F         141.9702  138.3234  163.7690 F       1  UNL1       -0.1682
     36 F         144.6298  138.8981  164.9784 F       1  UNL1       -0.1682
@<TRIPOS>BOND
     1    19    20    2
     2    20    23    1
     3    23    24    1
     4    24    25   ar
     5    25    26   ar
     6    26    27   ar
     7    27    28    1
     8    27    29   ar
     9    29    30   ar
    10    30    31    1
    11    20    21   am
    12     1    21    1
    13     1     2    1
    14     2     3    2
    15     3    13    1
    16    13    14   ar
    17    14    15   ar
    18    15    16   ar
    19    16    17   ar
    20    17    18   ar
    21     3     4    1
    22     4     5   ar
    23     5     6   ar
    24     6     7   ar
    25     7     8   ar
    26     8     9   ar
    27     9    10    1
    28    10    32    1
    29    32    33    1
    30    33    34    1
    31    33    35    1
    32    33    36    1
    33    10    11   am
    34    11    12    2
    35    30    24   ar
    36    11     1    1
    37    18    13   ar
    38     9     4   ar
    39    21    22    1
@<TRIPOS>MOLECULE
*****
 36 39 0 0 0
SMALL
GASTEIGER

@<TRIPOS>ATOM
      1 C         140.3313  143.4315  158.2635 C.3     1  UNL1        0.2551
      2 N         139.7932  143.6079  159.6526 N.2     1  UNL1       -0.2434
      3 C         140.3164  143.0376  160.9375 C.2     1  UNL1        0.0795
      4 C         141.5068  142.1502  161.1509 C.ar    1  UNL1        0.0310
      5 C         141.6809  141.8059  162.6004 C.ar    1  UNL1        0.0027
      6 C         142.8162  140.9252  163.0309 C.ar    1  UNL1        0.0001
      7 C         143.7774  140.3888  162.0119 C.ar    1  UNL1        0.0013
      8 C         143.6033  140.7331  160.5624 C.ar    1  UNL1        0.0150
      9 C         142.4680  141.6138  160.1319 C.ar    1  UNL1        0.0556
     10 N         142.4762  141.8324  158.6479 N.am    1  UNL1       -0.2474
     11 C         141.5253  142.6413  157.8164 C.2     1  UNL1        0.2714
     12 O         141.8055  142.6629  156.3430 O.2     1  UNL1       -0.2705
     13 C         139.5475  143.4032  162.1725 C.ar    1  UNL1        0.0174
     14 C         140.0050  144.5456  163.0302 C.ar    1  UNL1        0.0015
     15 C         139.2362  144.9112  164.2652 C.ar    1  UNL1        0.0000
     16 C         138.0097  144.1342  164.6425 C.ar    1  UNL1        0.0000
     17 C         137.5523  142.9919  163.7849 C.ar    1  UNL1        0.0000
     18 C         138.3211  142.6263  162.5499 C.ar    1  UNL1        0.0015
     19 O         141.1586  146.1856  157.4090 O.2     1  UNL1       -0.2747
     20 C         139.9889  145.5158  156.7508 C.2     1  UNL1        0.2285
     21 N         139.5752  144.1387  157.1781 N.am    1  UNL1       -0.2795
     22 H         138.8075  143.6991  156.7461 H       1  UNL1        0.1516
     23 C         139.2329  146.2231  155.6654 C.3     1  UNL1        0.1122
     24 C         139.1388  147.7202  155.6700 C.ar    1  UNL1       -0.0024
     25 C         138.4854  148.4271  156.8203 C.ar    1  UNL1       -0.0021
     26 C         138.3914  149.9242  156.8249 C.ar    1  UNL1        0.0111
     27 C         138.9508  150.7143  155.6791 C.ar    1  UNL1        0.0585
     28 CL        138.8567  152.2113  155.6836 Cl      1  UNL1       -0.0822
     29 C         139.6042  150.0073  154.5287 C.ar    1  UNL1        0.0225
     30 C         139.6982  148.5103  154.5242 C.ar    1  UNL1        0.0550
     31 CL        140.3517  147.8033  153.3738 Cl      1  UNL1       -0.0825
     32 C         143.5816  141.1521  157.8960 C.3     1  UNL1        0.2017
     33 C         144.8960  141.8485  157.7018 C.3     1  UNL1        0.4160
     34 F         146.2102  142.5448  157.5076 F       1  UNL1       -0.1682
     35 F         144.6767  143.2091  158.2938 F       1  UNL1       -0.1682
     36 F         145.4496  140.6197  157.0433 F       1  UNL1       -0.1682
@<TRIPOS>BOND
     1    19    20    2
     2    20    23    1
     3    23    24    1
     4    24    25   ar
     5    25    26   ar
     6    26    27   ar
     7    27    28    1
     8    27    29   ar
     9    29    30   ar
    10    30    31    1
    11    20    21   am
    12     1    21    1
    13     1     2    1
    14     2     3    2
    15     3    13    1
    16    13    14   ar
    17    14    15   ar
    18    15    16   ar
    19    16    17   ar
    20    17    18   ar
    21     3     4    1
    22     4     5   ar
    23     5     6   ar
    24     6     7   ar
    25     7     8   ar
    26     8     9   ar
    27     9    10    1
    28    10    32    1
    29    32    33    1
    30    33    34    1
    31    33    35    1
    32    33    36    1
    33    10    11   am
    34    11    12    2
    35    30    24   ar
    36    11     1    1
    37    18    13   ar
    38     9     4   ar
    39    21    22    1
@<TRIPOS>MOLECULE
*****
 36 39 0 0 0
SMALL
GASTEIGER

@<TRIPOS>ATOM
      1 C         142.0384  138.9231  159.2890 C.3     1  UNL1        0.2551
      2 N         141.0372  139.7871  158.5810 N.2     1  UNL1       -0.2434
      3 C         140.0175  140.7142  159.1731 C.2     1  UNL1        0.0795
      4 C         139.7470  141.0065  160.6192 C.ar    1  UNL1        0.0310
      5 C         138.6348  142.0002  160.7788 C.ar    1  UNL1        0.0027
      6 C         138.2051  142.4311  162.1498 C.ar    1  UNL1        0.0001
      7 C         138.8876  141.8683  163.3612 C.ar    1  UNL1        0.0013
      8 C         139.9998  140.8745  163.2016 C.ar    1  UNL1        0.0150
      9 C         140.4295  140.4436  161.8306 C.ar    1  UNL1        0.0556
     10 N         141.5510  139.4496  161.8950 N.am    1  UNL1       -0.2474
     11 C         142.2670  138.7729  160.7639 C.2     1  UNL1        0.2714
     12 O         143.3556  137.8200  161.1600 O.2     1  UNL1       -0.2705
     13 C         139.1541  141.4460  158.1887 C.ar    1  UNL1        0.0174
     14 C         139.6049  142.7627  157.6291 C.ar    1  UNL1        0.0015
     15 C         138.7414  143.4945  156.6448 C.ar    1  UNL1        0.0000
     16 C         137.4271  142.9096  156.2200 C.ar    1  UNL1        0.0000
     17 C         136.9763  141.5930  156.7795 C.ar    1  UNL1        0.0000
     18 C         137.8397  140.8611  157.7638 C.ar    1  UNL1        0.0015
     19 O         140.8418  137.1745  157.1652 O.2     1  UNL1       -0.2747
     20 C         142.3303  137.2262  157.3434 C.2     1  UNL1        0.2285
     21 N         142.9286  138.1005  158.4053 N.am    1  UNL1       -0.2795
     22 H         143.9055  138.1345  158.5223 H       1  UNL1        0.1516
     23 C         143.2206  136.4037  156.4597 C.3     1  UNL1        0.1122
     24 C         143.0002  134.9246  156.3414 C.ar    1  UNL1       -0.0024
     25 C         143.7044  133.9844  157.2741 C.ar    1  UNL1       -0.0021
     26 C         143.4840  132.5054  157.1558 C.ar    1  UNL1        0.0111
     27 C         142.5594  131.9666  156.1047 C.ar    1  UNL1        0.0585
     28 CL        142.3390  130.4877  155.9863 Cl      1  UNL1       -0.0822
     29 C         141.8552  132.9069  155.1719 C.ar    1  UNL1        0.0225
     30 C         142.0756  134.3859  155.2903 C.ar    1  UNL1        0.0550
     31 CL        141.3713  135.3262  154.3575 Cl      1  UNL1       -0.0825
     32 C         142.0182  139.0839  163.2726 C.3     1  UNL1        0.2017
     33 C         141.5865  137.7875  163.8916 C.3     1  UNL1        0.4160
     34 F         141.1548  136.4912  164.5106 F       1  UNL1       -0.1682
     35 F         140.4873  137.3044  162.9926 F       1  UNL1       -0.1682
     36 F         142.6118  137.9622  164.9725 F       1  UNL1       -0.1682
@<TRIPOS>BOND
     1    19    20    2
     2    20    23    1
     3    23    24    1
     4    24    25   ar
     5    25    26   ar
     6    26    27   ar
     7    27    28    1
     8    27    29   ar
     9    29    30   ar
    10    30    31    1
    11    20    21   am
    12     1    21    1
    13     1     2    1
    14     2     3    2
    15     3    13    1
    16    13    14   ar
    17    14    15   ar
    18    15    16   ar
    19    16    17   ar
    20    17    18   ar
    21     3     4    1
    22     4     5   ar
    23     5     6   ar
    24     6     7   ar
    25     7     8   ar
    26     8     9   ar
    27     9    10    1
    28    10    32    1
    29    32    33    1
    30    33    34    1
    31    33    35    1
    32    33    36    1
    33    10    11   am
    34    11    12    2
    35    30    24   ar
    36    11     1    1
    37    18    13   ar
    38     9     4   ar
    39    21    22    1
