@<TRIPOS>MOLECULE
*****
 36 41 0 0 0
SMALL
GASTEIGER

@<TRIPOS>ATOM
      1 C         140.4086  145.2702  158.7745 C.3     1  UNL1        0.0666
      2 C         141.1527  145.2899  160.0768 C.3     1  UNL1        0.0294
      3 C         140.3993  145.3956  161.3696 C.3     1  UNL1        0.0730
      4 C         142.0701  139.1899  170.0738 C.3     1  UNL1        0.0312
      5 C         141.7649  140.0266  168.8668 C.ar    1  UNL1       -0.0174
      6 C         140.3820  140.0283  168.2857 C.ar    1  UNL1        0.0149
      7 C         140.0767  140.8650  167.0787 C.ar    1  UNL1        0.0808
      8 N         141.1544  141.6999  166.4529 N.ar    1  UNL1       -0.2929
      9 C         141.1512  142.6183  165.2668 C.ar    1  UNL1        0.0577
     10 C         142.5320  143.1840  165.1150 C.ar    1  UNL1        0.0740
     11 N         143.3886  142.6154  166.2071 N.ar    1  UNL1       -0.2311
     12 C         142.5372  141.6981  167.0340 C.ar    1  UNL1        0.1468
     13 C         142.8425  140.8614  168.2410 C.ar    1  UNL1        0.0332
     14 C         143.0396  144.1481  164.0840 C.3     1  UNL1        0.0643
     15 C         142.2915  144.7844  162.9500 C.3     1  UNL1        0.0785
     16 N         140.8513  144.6138  162.5673 N.3     1  UNL1       -0.2720
     17 C         139.8033  143.7648  163.2237 C.3     1  UNL1        0.0784
     18 C         139.9367  142.8767  164.4252 C.3     1  UNL1        0.0627
     19 S         140.0283  143.9616  158.1477 S.3     1  UNL1       -0.0756
     20 C         140.3968  142.6726  158.8205 C.ar    1  UNL1        0.1932
     21 N         141.6458  141.8778  158.5794 N.ar    1  UNL1       -0.1221
     22 N         141.6020  140.6660  159.4624 N.ar    1  UNL1       -0.1282
     23 C         140.3258  140.7119  160.2492 C.ar    1  UNL1        0.1669
     24 N         139.5809  141.9521  159.8526 N.ar    1  UNL1       -0.2884
     25 C         138.2533  142.3940  160.3931 C.3     1  UNL1        0.1340
     26 C         139.8737  139.6961  161.2561 C.ar    1  UNL1        0.0374
     27 C         138.5447  139.0196  161.0943 C.ar    1  UNL1        0.0031
     28 C         138.0927  138.0038  162.1011 C.ar    1  UNL1        0.0016
     29 C         138.9696  137.6643  163.2697 C.ar    1  UNL1        0.0191
     30 C         140.2986  138.3407  163.4315 C.ar    1  UNL1        0.0810
     31 N         141.1756  138.0013  164.6001 N.ar    1  UNL1       -0.2497
     32 C         142.5047  138.6777  164.7619 C.ar    1  UNL1        0.0593
     33 C         143.3817  138.3382  165.9305 C.3     1  UNL1        0.0521
     34 C         142.9567  139.6936  163.7550 C.ar    1  UNL1        0.0147
     35 C         142.0797  140.0330  162.5864 C.ar    1  UNL1        0.0028
     36 C         140.7507  139.3566  162.4247 C.ar    1  UNL1        0.0206
@<TRIPOS>BOND
     1     4     5    1
     2     5     6   ar
     3     6     7   ar
     4     7     8   ar
     5     8     9   ar
     6     9    10   ar
     7    10    11   ar
     8    11    12   ar
     9    12    13   ar
    10    10    14    1
    11    14    15    1
    12    15    16    1
    13    16     3    1
    14     3     2    1
    15     2     1    1
    16     1    19    1
    17    19    20    1
    18    20    21   ar
    19    21    22   ar
    20    22    23   ar
    21    23    26    1
    22    26    27   ar
    23    27    28   ar
    24    28    29   ar
    25    29    30   ar
    26    30    31   ar
    27    31    32   ar
    28    32    33    1
    29    32    34   ar
    30    34    35   ar
    31    35    36   ar
    32    23    24   ar
    33    24    25    1
    34    16    17    1
    35    17    18    1
    36    13     5   ar
    37    24    20   ar
    38    12     8   ar
    39    36    26   ar
    40    18     9    1
    41    36    30   ar
@<TRIPOS>MOLECULE
*****
 36 41 0 0 0
SMALL
GASTEIGER

@<TRIPOS>ATOM
      1 C         144.1113  141.8748  157.9956 C.3     1  UNL1        0.0666
      2 C         143.2617  141.0040  157.1180 C.3     1  UNL1        0.0294
      3 C         142.9937  139.5805  157.5078 C.3     1  UNL1        0.0730
      4 C         137.7979  138.6585  166.9534 C.3     1  UNL1        0.0312
      5 C         138.4740  138.8477  165.6278 C.ar    1  UNL1       -0.0174
      6 C         138.0536  139.9692  164.7248 C.ar    1  UNL1        0.0149
      7 C         138.7297  140.1584  163.3993 C.ar    1  UNL1        0.0808
      8 N         139.8262  139.2260  162.9768 N.ar    1  UNL1       -0.2929
      9 C         140.6696  139.1645  161.7378 C.ar    1  UNL1        0.0577
     10 C         141.6111  138.0050  161.8752 C.ar    1  UNL1        0.0740
     11 N         141.3497  137.3498  163.1990 N.ar    1  UNL1       -0.2311
     12 C         140.2465  138.1045  163.8798 C.ar    1  UNL1        0.1468
     13 C         139.5704  137.9153  165.2053 C.ar    1  UNL1        0.0332
     14 C         142.6524  137.5260  160.9075 C.3     1  UNL1        0.0643
     15 C         143.0091  138.0884  159.5633 C.3     1  UNL1        0.0785
     16 N         142.4128  139.2684  158.8551 N.3     1  UNL1       -0.2720
     17 C         141.3125  140.1778  159.3159 C.3     1  UNL1        0.0784
     18 C         140.5366  140.1315  160.5989 C.3     1  UNL1        0.0627
     19 S         143.5224  143.0973  158.6347 S.3     1  UNL1       -0.0756
     20 C         143.3329  143.1487  160.1218 C.ar    1  UNL1        0.1932
     21 N         144.3984  142.9296  161.1545 N.ar    1  UNL1       -0.1221
     22 N         143.7687  143.0738  162.5082 N.ar    1  UNL1       -0.1282
     23 C         142.3138  143.3819  162.3121 C.ar    1  UNL1        0.1669
     24 N         142.0444  143.4283  160.8372 N.ar    1  UNL1       -0.2884
     25 C         140.7194  143.7054  160.1912 C.3     1  UNL1        0.1340
     26 C         141.3053  143.6047  163.4000 C.ar    1  UNL1        0.0374
     27 C         140.3421  144.7508  163.3065 C.ar    1  UNL1        0.0031
     28 C         139.3337  144.9735  164.3943 C.ar    1  UNL1        0.0016
     29 C         139.2883  144.0502  165.5756 C.ar    1  UNL1        0.0191
     30 C         140.2515  142.9041  165.6690 C.ar    1  UNL1        0.0810
     31 N         140.2063  141.9808  166.8503 N.ar    1  UNL1       -0.2497
     32 C         141.1694  140.8347  166.9438 C.ar    1  UNL1        0.0593
     33 C         141.1242  139.9113  168.1250 C.3     1  UNL1        0.0521
     34 C         142.1779  140.6120  165.8559 C.ar    1  UNL1        0.0147
     35 C         142.2232  141.5353  164.6746 C.ar    1  UNL1        0.0028
     36 C         141.2600  142.6814  164.5812 C.ar    1  UNL1        0.0206
@<TRIPOS>BOND
     1     4     5    1
     2     5     6   ar
     3     6     7   ar
     4     7     8   ar
     5     8     9   ar
     6     9    10   ar
     7    10    11   ar
     8    11    12   ar
     9    12    13   ar
    10    10    14    1
    11    14    15    1
    12    15    16    1
    13    16     3    1
    14     3     2    1
    15     2     1    1
    16     1    19    1
    17    19    20    1
    18    20    21   ar
    19    21    22   ar
    20    22    23   ar
    21    23    26    1
    22    26    27   ar
    23    27    28   ar
    24    28    29   ar
    25    29    30   ar
    26    30    31   ar
    27    31    32   ar
    28    32    33    1
    29    32    34   ar
    30    34    35   ar
    31    35    36   ar
    32    23    24   ar
    33    24    25    1
    34    16    17    1
    35    17    18    1
    36    13     5   ar
    37    24    20   ar
    38    12     8   ar
    39    36    26   ar
    40    18     9    1
    41    36    30   ar
@<TRIPOS>MOLECULE
*****
 36 41 0 0 0
SMALL
GASTEIGER

@<TRIPOS>ATOM
      1 C         142.4874  137.6978  158.1860 C.3     1  UNL1        0.0666
      2 C         141.2909  137.7680  157.2841 C.3     1  UNL1        0.0294
      3 C         139.9187  137.9254  157.8692 C.3     1  UNL1        0.0730
      4 C         138.1475  145.0971  165.7746 C.3     1  UNL1        0.0312
      5 C         138.4101  144.0504  164.7328 C.ar    1  UNL1       -0.0174
      6 C         138.8211  142.6681  165.1454 C.ar    1  UNL1        0.0149
      7 C         139.0837  141.6213  164.1036 C.ar    1  UNL1        0.0808
      8 N         138.9351  141.9568  162.6492 N.ar    1  UNL1       -0.2929
      9 C         139.1248  141.1392  161.4060 C.ar    1  UNL1        0.0577
     10 C         138.8309  142.0161  160.2252 C.ar    1  UNL1        0.0740
     11 N         138.4597  143.3758  160.7384 N.ar    1  UNL1       -0.2311
     12 C         138.5241  143.3391  162.2365 C.ar    1  UNL1        0.1468
     13 C         138.2615  144.3859  163.2784 C.ar    1  UNL1        0.0332
     14 C         138.8782  141.6680  158.7668 C.3     1  UNL1        0.0643
     15 C         139.2311  140.3567  158.1293 C.3     1  UNL1        0.0785
     16 N         139.6238  139.0701  158.7927 N.3     1  UNL1       -0.2720
     17 C         139.7606  138.7766  160.2573 C.3     1  UNL1        0.0784
     18 C         139.5385  139.6974  161.4204 C.3     1  UNL1        0.0627
     19 S         143.1028  138.9592  158.7151 S.3     1  UNL1       -0.0756
     20 C         143.4291  139.0799  160.1742 C.ar    1  UNL1        0.1932
     21 N         143.9824  137.9925  161.0467 N.ar    1  UNL1       -0.1221
     22 N         144.1547  138.5496  162.4287 N.ar    1  UNL1       -0.1282
     23 C         143.7079  139.9814  162.4102 C.ar    1  UNL1        0.1669
     24 N         143.2595  140.3092  161.0168 N.ar    1  UNL1       -0.2884
     25 C         142.7337  141.6336  160.5484 C.3     1  UNL1        0.1340
     26 C         143.7094  140.9206  163.5798 C.ar    1  UNL1        0.0374
     27 C         144.6265  142.1076  163.5875 C.ar    1  UNL1        0.0031
     28 C         144.6279  143.0468  164.7570 C.ar    1  UNL1        0.0016
     29 C         143.7122  142.7991  165.9190 C.ar    1  UNL1        0.0191
     30 C         142.7951  141.6121  165.9113 C.ar    1  UNL1        0.0810
     31 N         141.8794  141.3643  167.0732 N.ar    1  UNL1       -0.2497
     32 C         140.9623  140.1774  167.0657 C.ar    1  UNL1        0.0593
     33 C         140.0466  139.9296  168.2276 C.3     1  UNL1        0.0521
     34 C         140.9609  139.2382  165.8960 C.ar    1  UNL1        0.0147
     35 C         141.8766  139.4860  164.7341 C.ar    1  UNL1        0.0028
     36 C         142.7937  140.6729  164.7418 C.ar    1  UNL1        0.0206
@<TRIPOS>BOND
     1     4     5    1
     2     5     6   ar
     3     6     7   ar
     4     7     8   ar
     5     8     9   ar
     6     9    10   ar
     7    10    11   ar
     8    11    12   ar
     9    12    13   ar
    10    10    14    1
    11    14    15    1
    12    15    16    1
    13    16     3    1
    14     3     2    1
    15     2     1    1
    16     1    19    1
    17    19    20    1
    18    20    21   ar
    19    21    22   ar
    20    22    23   ar
    21    23    26    1
    22    26    27   ar
    23    27    28   ar
    24    28    29   ar
    25    29    30   ar
    26    30    31   ar
    27    31    32   ar
    28    32    33    1
    29    32    34   ar
    30    34    35   ar
    31    35    36   ar
    32    23    24   ar
    33    24    25    1
    34    16    17    1
    35    17    18    1
    36    13     5   ar
    37    24    20   ar
    38    12     8   ar
    39    36    26   ar
    40    18     9    1
    41    36    30   ar
@<TRIPOS>MOLECULE
*****
 36 41 0 0 0
SMALL
GASTEIGER

@<TRIPOS>ATOM
      1 C         139.6217  143.2016  157.1394 C.3     1  UNL1        0.0666
      2 C         138.5267  142.9223  158.1259 C.3     1  UNL1        0.0294
      3 C         138.2398  141.5119  158.5487 C.3     1  UNL1        0.0730
      4 C         139.9945  140.1937  169.1435 C.3     1  UNL1        0.0312
      5 C         139.7773  140.4489  167.6814 C.ar    1  UNL1       -0.0174
      6 C         140.1113  141.7891  167.0963 C.ar    1  UNL1        0.0149
      7 C         139.8941  142.0444  165.6342 C.ar    1  UNL1        0.0808
      8 N         139.3429  140.9594  164.7573 N.ar    1  UNL1       -0.2929
      9 C         139.0241  140.9179  163.2921 C.ar    1  UNL1        0.0577
     10 C         138.4932  139.5522  162.9718 C.ar    1  UNL1        0.0740
     11 N         138.4837  138.7495  164.2388 N.ar    1  UNL1       -0.2311
     12 C         139.0089  139.6192  165.3424 C.ar    1  UNL1        0.1468
     13 C         139.2261  139.3640  166.8045 C.ar    1  UNL1        0.0332
     14 C         138.0350  139.0135  161.6489 C.3     1  UNL1        0.0643
     15 C         137.9946  139.7076  160.3197 C.3     1  UNL1        0.0785
     16 N         138.4024  141.1117  159.9852 N.3     1  UNL1       -0.2720
     17 C         138.9514  142.1687  160.8971 C.3     1  UNL1        0.0784
     18 C         139.2281  142.0824  162.3688 C.3     1  UNL1        0.0627
     19 S         140.8435  143.9580  157.5693 S.3     1  UNL1       -0.0756
     20 C         141.7138  143.4170  158.6647 C.ar    1  UNL1        0.1932
     21 N         142.6732  142.2704  158.5434 N.ar    1  UNL1       -0.1221
     22 N         143.3299  142.0722  159.8774 N.ar    1  UNL1       -0.1282
     23 C         142.7762  143.0965  160.8232 C.ar    1  UNL1        0.1669
     24 N         141.7774  143.9276  160.0737 N.ar    1  UNL1       -0.2884
     25 C         140.9819  145.0688  160.6348 C.3     1  UNL1        0.1340
     26 C         143.1549  143.2607  162.2653 C.ar    1  UNL1        0.0374
     27 C         143.6202  144.5939  162.7713 C.ar    1  UNL1        0.0031
     28 C         143.9989  144.7582  164.2134 C.ar    1  UNL1        0.0016
     29 C         143.9122  143.5894  165.1495 C.ar    1  UNL1        0.0191
     30 C         143.4469  142.2562  164.6434 C.ar    1  UNL1        0.0810
     31 N         143.3602  141.0873  165.5794 N.ar    1  UNL1       -0.2497
     32 C         142.8948  139.7541  165.0735 C.ar    1  UNL1        0.0593
     33 C         142.8081  138.5852  166.0095 C.3     1  UNL1        0.0521
     34 C         142.5161  139.5899  163.6313 C.ar    1  UNL1        0.0147
     35 C         142.6028  140.7587  162.6953 C.ar    1  UNL1        0.0028
     36 C         143.0682  142.0919  163.2014 C.ar    1  UNL1        0.0206
@<TRIPOS>BOND
     1     4     5    1
     2     5     6   ar
     3     6     7   ar
     4     7     8   ar
     5     8     9   ar
     6     9    10   ar
     7    10    11   ar
     8    11    12   ar
     9    12    13   ar
    10    10    14    1
    11    14    15    1
    12    15    16    1
    13    16     3    1
    14     3     2    1
    15     2     1    1
    16     1    19    1
    17    19    20    1
    18    20    21   ar
    19    21    22   ar
    20    22    23   ar
    21    23    26    1
    22    26    27   ar
    23    27    28   ar
    24    28    29   ar
    25    29    30   ar
    26    30    31   ar
    27    31    32   ar
    28    32    33    1
    29    32    34   ar
    30    34    35   ar
    31    35    36   ar
    32    23    24   ar
    33    24    25    1
    34    16    17    1
    35    17    18    1
    36    13     5   ar
    37    24    20   ar
    38    12     8   ar
    39    36    26   ar
    40    18     9    1
    41    36    30   ar
@<TRIPOS>MOLECULE
*****
 36 41 0 0 0
SMALL
GASTEIGER

@<TRIPOS>ATOM
      1 C         140.3918  145.7359  160.5535 C.3     1  UNL1        0.0666
      2 C         140.1058  144.7771  159.4360 C.3     1  UNL1        0.0294
      3 C         141.1071  143.7178  159.0818 C.3     1  UNL1        0.0730
      4 C         144.4641  137.3110  167.1285 C.3     1  UNL1        0.0312
      5 C         143.9283  138.1682  166.0203 C.ar    1  UNL1       -0.0174
      6 C         142.4885  138.0563  165.6148 C.ar    1  UNL1        0.0149
      7 C         141.9526  138.9135  164.5066 C.ar    1  UNL1        0.0808
      8 N         142.8566  139.8826  163.8039 N.ar    1  UNL1       -0.2929
      9 C         142.6139  140.8508  162.6843 C.ar    1  UNL1        0.0577
     10 C         143.9035  141.5610  162.3979 C.ar    1  UNL1        0.0740
     11 N         144.9435  141.0319  163.3405 N.ar    1  UNL1       -0.2311
     12 C         144.2964  139.9945  164.2095 C.ar    1  UNL1        0.1468
     13 C         144.8323  139.1373  165.3177 C.ar    1  UNL1        0.0332
     14 C         144.1805  142.6195  161.3716 C.3     1  UNL1        0.0643
     15 C         143.2360  143.2289  160.3783 C.3     1  UNL1        0.0785
     16 N         141.7815  142.9305  160.1660 N.3     1  UNL1       -0.2720
     17 C         140.9120  141.9490  160.8945 C.3     1  UNL1        0.0784
     18 C         141.2824  141.0234  162.0152 C.3     1  UNL1        0.0627
     19 S         139.6074  145.6561  161.8295 S.3     1  UNL1       -0.0756
     20 C         140.0269  144.7034  162.9094 C.ar    1  UNL1        0.1932
     21 N         141.3496  144.6998  163.6170 N.ar    1  UNL1       -0.1221
     22 N         141.3376  143.5813  164.6163 N.ar    1  UNL1       -0.1282
     23 C         140.0076  142.8936  164.5264 C.ar    1  UNL1        0.1669
     24 N         139.1975  143.5871  163.4715 N.ar    1  UNL1       -0.2884
     25 C         137.8029  143.2275  163.0523 C.3     1  UNL1        0.1340
     26 C         139.5652  141.7186  165.3473 C.ar    1  UNL1        0.0374
     27 C         138.7095  140.6523  164.7303 C.ar    1  UNL1        0.0031
     28 C         138.2671  139.4774  165.5512 C.ar    1  UNL1        0.0016
     29 C         138.6805  139.3687  166.9890 C.ar    1  UNL1        0.0191
     30 C         139.5362  140.4350  167.6059 C.ar    1  UNL1        0.0810
     31 N         139.9496  140.3265  169.0437 N.ar    1  UNL1       -0.2497
     32 C         140.8053  141.3928  169.6607 C.ar    1  UNL1        0.0593
     33 C         141.2187  141.2842  171.0985 C.3     1  UNL1        0.0521
     34 C         141.2477  142.5678  168.8398 C.ar    1  UNL1        0.0147
     35 C         140.8343  142.6763  167.4020 C.ar    1  UNL1        0.0028
     36 C         139.9786  141.6100  166.7851 C.ar    1  UNL1        0.0206
@<TRIPOS>BOND
     1     4     5    1
     2     5     6   ar
     3     6     7   ar
     4     7     8   ar
     5     8     9   ar
     6     9    10   ar
     7    10    11   ar
     8    11    12   ar
     9    12    13   ar
    10    10    14    1
    11    14    15    1
    12    15    16    1
    13    16     3    1
    14     3     2    1
    15     2     1    1
    16     1    19    1
    17    19    20    1
    18    20    21   ar
    19    21    22   ar
    20    22    23   ar
    21    23    26    1
    22    26    27   ar
    23    27    28   ar
    24    28    29   ar
    25    29    30   ar
    26    30    31   ar
    27    31    32   ar
    28    32    33    1
    29    32    34   ar
    30    34    35   ar
    31    35    36   ar
    32    23    24   ar
    33    24    25    1
    34    16    17    1
    35    17    18    1
    36    13     5   ar
    37    24    20   ar
    38    12     8   ar
    39    36    26   ar
    40    18     9    1
    41    36    30   ar
@<TRIPOS>MOLECULE
*****
 36 41 0 0 0
SMALL
GASTEIGER

@<TRIPOS>ATOM
      1 C         139.7027  140.9296  169.1189 C.3     1  UNL1        0.0666
      2 C         139.8133  139.8010  168.1370 C.3     1  UNL1        0.0294
      3 C         138.6207  139.3960  167.3223 C.3     1  UNL1        0.0730
      4 C         138.8684  140.6925  156.5834 C.3     1  UNL1        0.0312
      5 C         138.8140  140.5872  158.0787 C.ar    1  UNL1       -0.0174
      6 C         138.4514  141.7872  158.9024 C.ar    1  UNL1        0.0149
      7 C         138.3971  141.6818  160.3978 C.ar    1  UNL1        0.0808
      8 N         138.7053  140.3765  161.0693 N.ar    1  UNL1       -0.2929
      9 C         138.7326  139.9726  162.5137 C.ar    1  UNL1        0.0577
     10 C         139.1121  138.5232  162.5826 C.ar    1  UNL1        0.0740
     11 N         139.3193  138.0310  161.1809 N.ar    1  UNL1       -0.2311
     12 C         139.0679  139.1765  160.2456 C.ar    1  UNL1        0.1468
     13 C         139.1222  139.2818  158.7503 C.ar    1  UNL1        0.0332
     14 C         139.2748  137.6556  163.7955 C.3     1  UNL1        0.0643
     15 C         139.0982  138.0235  165.2390 C.3     1  UNL1        0.0785
     16 N         138.7153  139.3496  165.8260 N.3     1  UNL1       -0.2720
     17 C         138.4144  140.6355  165.1147 C.3     1  UNL1        0.0784
     18 C         138.4221  140.9128  163.6405 C.3     1  UNL1        0.0627
     19 S         140.3794  142.2381  168.8369 S.3     1  UNL1       -0.0756
     20 C         140.6217  142.6672  167.4201 C.ar    1  UNL1        0.1932
     21 N         139.6613  143.4247  166.5518 N.ar    1  UNL1       -0.1221
     22 N         140.3129  143.6397  165.2179 N.ar    1  UNL1       -0.1282
     23 C         141.6759  143.0151  165.2619 C.ar    1  UNL1        0.1669
     24 N         141.8668  142.4140  166.6229 N.ar    1  UNL1       -0.2884
     25 C         143.0883  141.6873  167.1024 C.3     1  UNL1        0.1340
     26 C         142.6731  142.9950  164.1415 C.ar    1  UNL1        0.0374
     27 C         143.3558  144.2632  163.7222 C.ar    1  UNL1        0.0031
     28 C         144.3529  144.2431  162.6019 C.ar    1  UNL1        0.0016
     29 C         144.6675  142.9550  161.9007 C.ar    1  UNL1        0.0191
     30 C         143.9848  141.6868  162.3199 C.ar    1  UNL1        0.0810
     31 N         144.2993  140.3986  161.6188 N.ar    1  UNL1       -0.2497
     32 C         143.6166  139.1304  162.0380 C.ar    1  UNL1        0.0593
     33 C         143.9311  137.8422  161.3369 C.3     1  UNL1        0.0521
     34 C         142.6194  139.1505  163.1584 C.ar    1  UNL1        0.0147
     35 C         142.3049  140.4387  163.8596 C.ar    1  UNL1        0.0028
     36 C         142.9876  141.7069  163.4403 C.ar    1  UNL1        0.0206
@<TRIPOS>BOND
     1     4     5    1
     2     5     6   ar
     3     6     7   ar
     4     7     8   ar
     5     8     9   ar
     6     9    10   ar
     7    10    11   ar
     8    11    12   ar
     9    12    13   ar
    10    10    14    1
    11    14    15    1
    12    15    16    1
    13    16     3    1
    14     3     2    1
    15     2     1    1
    16     1    19    1
    17    19    20    1
    18    20    21   ar
    19    21    22   ar
    20    22    23   ar
    21    23    26    1
    22    26    27   ar
    23    27    28   ar
    24    28    29   ar
    25    29    30   ar
    26    30    31   ar
    27    31    32   ar
    28    32    33    1
    29    32    34   ar
    30    34    35   ar
    31    35    36   ar
    32    23    24   ar
    33    24    25    1
    34    16    17    1
    35    17    18    1
    36    13     5   ar
    37    24    20   ar
    38    12     8   ar
    39    36    26   ar
    40    18     9    1
    41    36    30   ar
@<TRIPOS>MOLECULE
*****
 36 41 0 0 0
SMALL
GASTEIGER

@<TRIPOS>ATOM
      1 C         142.2064  140.6436  156.3779 C.3     1  UNL1        0.0666
      2 C         141.2732  139.5779  155.8846 C.3     1  UNL1        0.0294
      3 C         139.8363  139.5811  156.3151 C.3     1  UNL1        0.0730
      4 C         138.1103  138.8789  166.9731 C.3     1  UNL1        0.0312
      5 C         138.3859  138.9080  165.4989 C.ar    1  UNL1       -0.0174
      6 C         139.1269  137.7757  164.8519 C.ar    1  UNL1        0.0149
      7 C         139.4024  137.8048  163.3777 C.ar    1  UNL1        0.0808
      8 N         138.9369  138.9663  162.5506 N.ar    1  UNL1       -0.2929
      9 C         139.0616  139.2702  161.0869 C.ar    1  UNL1        0.0577
     10 C         138.3977  140.5903  160.8295 C.ar    1  UNL1        0.0740
     11 N         137.8626  141.1024  162.1338 N.ar    1  UNL1       -0.2311
     12 C         138.1959  140.0987  163.1975 C.ar    1  UNL1        0.1468
     13 C         137.9204  140.0696  164.6718 C.ar    1  UNL1        0.0332
     14 C         138.2549  141.3279  159.5311 C.3     1  UNL1        0.0643
     15 C         138.7408  140.9274  158.1696 C.3     1  UNL1        0.0785
     16 N         139.4894  139.6906  157.7703 N.3     1  UNL1       -0.2720
     17 C         139.9372  138.5486  158.6337 C.3     1  UNL1        0.0784
     18 C         139.7468  138.3615  160.1098 C.3     1  UNL1        0.0627
     19 S         143.5046  140.2628  157.0256 S.3     1  UNL1       -0.0756
     20 C         143.5843  140.1158  158.5163 C.ar    1  UNL1        0.1932
     21 N         143.4385  138.8361  159.2851 N.ar    1  UNL1       -0.1221
     22 N         143.5880  139.1521  160.7438 N.ar    1  UNL1       -0.1282
     23 C         143.8261  140.6271  160.8765 C.ar    1  UNL1        0.1669
     24 N         143.8239  141.2227  159.4998 N.ar    1  UNL1       -0.2884
     25 C         144.0258  142.6710  159.1654 C.3     1  UNL1        0.1340
     26 C         144.0306  141.3752  162.1604 C.ar    1  UNL1        0.0374
     27 C         145.3465  141.2916  162.8757 C.ar    1  UNL1        0.0031
     28 C         145.5510  142.0397  164.1597 C.ar    1  UNL1        0.0016
     29 C         144.4397  142.8713  164.7284 C.ar    1  UNL1        0.0191
     30 C         143.1239  142.9549  164.0131 C.ar    1  UNL1        0.0810
     31 N         142.0126  143.7865  164.5817 N.ar    1  UNL1       -0.2497
     32 C         140.6968  143.8701  163.8665 C.ar    1  UNL1        0.0593
     33 C         139.5855  144.7017  164.4351 C.3     1  UNL1        0.0521
     34 C         140.4923  143.1220  162.5825 C.ar    1  UNL1        0.0147
     35 C         141.6036  142.2903  162.0138 C.ar    1  UNL1        0.0028
     36 C         142.9194  142.2068  162.7291 C.ar    1  UNL1        0.0206
@<TRIPOS>BOND
     1     4     5    1
     2     5     6   ar
     3     6     7   ar
     4     7     8   ar
     5     8     9   ar
     6     9    10   ar
     7    10    11   ar
     8    11    12   ar
     9    12    13   ar
    10    10    14    1
    11    14    15    1
    12    15    16    1
    13    16     3    1
    14     3     2    1
    15     2     1    1
    16     1    19    1
    17    19    20    1
    18    20    21   ar
    19    21    22   ar
    20    22    23   ar
    21    23    26    1
    22    26    27   ar
    23    27    28   ar
    24    28    29   ar
    25    29    30   ar
    26    30    31   ar
    27    31    32   ar
    28    32    33    1
    29    32    34   ar
    30    34    35   ar
    31    35    36   ar
    32    23    24   ar
    33    24    25    1
    34    16    17    1
    35    17    18    1
    36    13     5   ar
    37    24    20   ar
    38    12     8   ar
    39    36    26   ar
    40    18     9    1
    41    36    30   ar
@<TRIPOS>MOLECULE
*****
 36 41 0 0 0
SMALL
GASTEIGER

@<TRIPOS>ATOM
      1 C         140.2611  145.0468  158.8154 C.3     1  UNL1        0.0666
      2 C         140.8857  145.4101  160.1299 C.3     1  UNL1        0.0294
      3 C         140.0220  145.6210  161.3380 C.3     1  UNL1        0.0730
      4 C         142.0123  139.3287  169.9120 C.3     1  UNL1        0.0312
      5 C         141.8054  140.2342  168.7341 C.ar    1  UNL1       -0.0174
      6 C         142.8666  141.2234  168.3530 C.ar    1  UNL1        0.0149
      7 C         142.6597  142.1289  167.1751 C.ar    1  UNL1        0.0808
      8 N         141.3916  142.0451  166.3784 N.ar    1  UNL1       -0.2929
      9 C         140.9095  142.8019  165.1764 C.ar    1  UNL1        0.0577
     10 C         139.5505  142.2805  164.8147 C.ar    1  UNL1        0.0740
     11 N         139.1925  141.2014  165.7930 N.ar    1  UNL1       -0.2311
     12 C         140.3303  141.0559  166.7595 C.ar    1  UNL1        0.1468
     13 C         140.5373  140.1504  167.9374 C.ar    1  UNL1        0.0332
     14 C         138.6521  142.7100  163.6928 C.3     1  UNL1        0.0643
     15 C         138.8910  143.7672  162.6557 C.3     1  UNL1        0.0785
     16 N         140.0872  144.6557  162.4844 N.3     1  UNL1       -0.2720
     17 C         141.3400  144.7067  163.3077 C.3     1  UNL1        0.0784
     18 C         141.7060  143.8817  164.5057 C.3     1  UNL1        0.0627
     19 S         140.4573  143.6731  158.2460 S.3     1  UNL1       -0.0756
     20 C         140.8804  142.5445  159.1389 C.ar    1  UNL1        0.1932
     21 N         142.2824  142.0438  159.3228 N.ar    1  UNL1       -0.1221
     22 N         142.2444  140.9084  160.3022 N.ar    1  UNL1       -0.1282
     23 C         140.8189  140.7073  160.7237 C.ar    1  UNL1        0.1669
     24 N         139.9759  141.7186  160.0047 N.ar    1  UNL1       -0.2884
     25 C         138.4895  141.8761  160.1297 C.3     1  UNL1        0.1340
     26 C         140.3234  139.6762  161.6938 C.ar    1  UNL1        0.0374
     27 C         139.0031  139.0027  161.4632 C.ar    1  UNL1        0.0031
     28 C         138.5075  137.9715  162.4333 C.ar    1  UNL1        0.0016
     29 C         139.3323  137.6137  163.6340 C.ar    1  UNL1        0.0191
     30 C         140.6526  138.2872  163.8646 C.ar    1  UNL1        0.0810
     31 N         141.4774  137.9295  165.0653 N.ar    1  UNL1       -0.2497
     32 C         142.7978  138.6029  165.2959 C.ar    1  UNL1        0.0593
     33 C         143.6226  138.2452  166.4966 C.3     1  UNL1        0.0521
     34 C         143.2933  139.6341  164.3257 C.ar    1  UNL1        0.0147
     35 C         142.4685  139.9918  163.1251 C.ar    1  UNL1        0.0028
     36 C         141.1481  139.3184  162.8945 C.ar    1  UNL1        0.0206
@<TRIPOS>BOND
     1     4     5    1
     2     5     6   ar
     3     6     7   ar
     4     7     8   ar
     5     8     9   ar
     6     9    10   ar
     7    10    11   ar
     8    11    12   ar
     9    12    13   ar
    10    10    14    1
    11    14    15    1
    12    15    16    1
    13    16     3    1
    14     3     2    1
    15     2     1    1
    16     1    19    1
    17    19    20    1
    18    20    21   ar
    19    21    22   ar
    20    22    23   ar
    21    23    26    1
    22    26    27   ar
    23    27    28   ar
    24    28    29   ar
    25    29    30   ar
    26    30    31   ar
    27    31    32   ar
    28    32    33    1
    29    32    34   ar
    30    34    35   ar
    31    35    36   ar
    32    23    24   ar
    33    24    25    1
    34    16    17    1
    35    17    18    1
    36    13     5   ar
    37    24    20   ar
    38    12     8   ar
    39    36    26   ar
    40    18     9    1
    41    36    30   ar
@<TRIPOS>MOLECULE
*****
 36 41 0 0 0
SMALL
GASTEIGER

@<TRIPOS>ATOM
      1 C         141.4802  143.4000  156.7888 C.3     1  UNL1        0.0666
      2 C         141.3935  141.9149  156.9806 C.3     1  UNL1        0.0294
      3 C         142.5810  141.1539  157.4915 C.3     1  UNL1        0.0730
      4 C         142.7540  139.1946  168.1309 C.3     1  UNL1        0.0312
      5 C         142.7314  139.5419  166.6718 C.ar    1  UNL1       -0.0174
      6 C         142.7434  140.9791  166.2427 C.ar    1  UNL1        0.0149
      7 C         142.7208  141.3264  164.7836 C.ar    1  UNL1        0.0808
      8 N         142.6861  140.2364  163.7537 N.ar    1  UNL1       -0.2929
      9 C         142.6584  140.2727  162.2544 C.ar    1  UNL1        0.0577
     10 C         142.6292  138.8580  161.7570 C.ar    1  UNL1        0.0740
     11 N         142.6389  137.9472  162.9488 N.ar    1  UNL1       -0.2311
     12 C         142.6741  138.7992  164.1828 C.ar    1  UNL1        0.1468
     13 C         142.6967  138.4519  165.6419 C.ar    1  UNL1        0.0332
     14 C         142.5956  138.3651  160.3406 C.3     1  UNL1        0.0643
     15 C         142.5829  139.1654  159.0719 C.3     1  UNL1        0.0785
     16 N         142.6006  140.6560  158.9064 N.3     1  UNL1       -0.2720
     17 C         142.6355  141.7147  159.9684 C.3     1  UNL1        0.0784
     18 C         142.6612  141.5442  161.4585 C.3     1  UNL1        0.0627
     19 S         140.4795  144.3012  157.4494 S.3     1  UNL1       -0.0756
     20 C         139.7501  143.8403  158.6764 C.ar    1  UNL1        0.1932
     21 N         138.5031  143.0071  158.6999 N.ar    1  UNL1       -0.1221
     22 N         138.1220  142.7834  160.1334 N.ar    1  UNL1       -0.1282
     23 C         139.1335  143.4784  160.9957 C.ar    1  UNL1        0.1669
     24 N         140.1398  144.1316  160.0953 N.ar    1  UNL1       -0.2884
     25 C         141.3273  144.9350  160.5363 C.3     1  UNL1        0.1340
     26 C         139.1381  143.5140  162.4953 C.ar    1  UNL1        0.0374
     27 C         139.1573  144.8304  163.2142 C.ar    1  UNL1        0.0031
     28 C         139.1619  144.8659  164.7138 C.ar    1  UNL1        0.0016
     29 C         139.1471  143.5853  165.4945 C.ar    1  UNL1        0.0191
     30 C         139.1279  142.2689  164.7756 C.ar    1  UNL1        0.0810
     31 N         139.1131  140.9881  165.5562 N.ar    1  UNL1       -0.2497
     32 C         139.0939  139.6717  164.8373 C.ar    1  UNL1        0.0593
     33 C         139.0792  138.3910  165.6180 C.3     1  UNL1        0.0521
     34 C         139.0894  139.6362  163.3377 C.ar    1  UNL1        0.0147
     35 C         139.1041  140.9170  162.5571 C.ar    1  UNL1        0.0028
     36 C         139.1233  142.2333  163.2760 C.ar    1  UNL1        0.0206
@<TRIPOS>BOND
     1     4     5    1
     2     5     6   ar
     3     6     7   ar
     4     7     8   ar
     5     8     9   ar
     6     9    10   ar
     7    10    11   ar
     8    11    12   ar
     9    12    13   ar
    10    10    14    1
    11    14    15    1
    12    15    16    1
    13    16     3    1
    14     3     2    1
    15     2     1    1
    16     1    19    1
    17    19    20    1
    18    20    21   ar
    19    21    22   ar
    20    22    23   ar
    21    23    26    1
    22    26    27   ar
    23    27    28   ar
    24    28    29   ar
    25    29    30   ar
    26    30    31   ar
    27    31    32   ar
    28    32    33    1
    29    32    34   ar
    30    34    35   ar
    31    35    36   ar
    32    23    24   ar
    33    24    25    1
    34    16    17    1
    35    17    18    1
    36    13     5   ar
    37    24    20   ar
    38    12     8   ar
    39    36    26   ar
    40    18     9    1
    41    36    30   ar
