@<TRIPOS>MOLECULE
*****
 33 35 0 0 0
SMALL
GASTEIGER

@<TRIPOS>ATOM
      1 S         141.4625  143.6341  163.2224 S.O2    1  UNL1        0.0633
      2 O         140.7437  142.3808  162.8194 O.2     1  UNL1       -0.1528
      3 O         142.1812  144.8875  163.6254 O.2     1  UNL1       -0.1528
      4 C         139.1518  144.2126  165.0462 C.3     1  UNL1        0.0206
      5 C         140.3373  143.4486  165.5569 C.3     1  UNL1        0.0956
      6 C         140.3675  142.9739  166.9794 C.3     1  UNL1        0.0900
      7 N         141.5531  142.2098  167.4901 N.3     1  UNL1       -0.2698
      8 C         142.7084  141.9206  166.5782 C.3     1  UNL1        0.0915
      9 C         142.6782  142.3954  165.1557 C.3     1  UNL1        0.1131
     10 N         141.4926  143.1594  164.6450 N.3     1  UNL1       -0.1541
     11 C         141.5832  141.7351  168.9127 C.3     1  UNL1        0.0807
     12 C         140.3035  141.3930  169.6165 C.3     1  UNL1        0.0833
     13 C         139.0423  140.6633  169.9726 C.3     1  UNL1        0.0105
     14 C         139.9123  140.1582  168.8600 C.3     1  UNL1        0.0105
     15 C         140.2503  142.5090  170.6173 C.2     1  UNL1        0.2198
     16 N         140.0799  143.9251  170.1533 N.am    1  UNL1       -0.3288
     17 O         140.3675  142.2087  172.0823 O.2     1  UNL1       -0.2753
     18 H         140.0029  144.1222  169.1918 H       1  UNL1        0.1449
     19 H         140.0449  144.6576  170.8102 H       1  UNL1        0.1449
     20 C         141.4323  144.1089  161.7998 C.ar    1  UNL1        0.1222
     21 C         142.4764  143.6399  160.8304 C.ar    1  UNL1        0.0197
     22 C         142.4462  144.1147  159.4077 C.ar    1  UNL1       -0.0004
     23 C         141.3718  145.0583  158.9547 C.ar    1  UNL1        0.0099
     24 C         140.3277  145.5273  159.9242 C.ar    1  UNL1       -0.0004
     25 C         140.3579  145.0525  161.3467 C.ar    1  UNL1        0.0197
     26 C         141.3417  145.5330  157.5321 C.3     1  UNL1        0.1945
     27 C         141.3114  146.0077  156.1095 C.3     1  UNL1        0.0428
     28 O         142.6008  146.3138  157.7660 O.3     1  UNL1       -0.3751
     29 H         142.8907  146.1927  158.6837 H       1  UNL1        0.2110
     30 C         140.0825  144.7522  157.2983 C.3     1  UNL1        0.4230
     31 F         138.8232  143.9713  157.0644 F       1  UNL1       -0.1673
     32 F         140.4851  143.3297  157.5519 F       1  UNL1       -0.1673
     33 F         139.3534  146.0236  156.9786 F       1  UNL1       -0.1673
@<TRIPOS>BOND
     1     5     4    1
     2     5     6    1
     3     6     7    1
     4     7    11    1
     5    11    12    1
     6    12    15    1
     7    15    16   am
     8    15    17    2
     9    12    13    1
    10    13    14    1
    11     7     8    1
    12     8     9    1
    13     9    10    1
    14    10     1    1
    15     1     2    2
    16     1     3    2
    17     1    20    1
    18    20    21   ar
    19    21    22   ar
    20    22    23   ar
    21    23    26    1
    22    26    27    1
    23    26    28    1
    24    26    30    1
    25    30    31    1
    26    30    32    1
    27    30    33    1
    28    23    24   ar
    29    24    25   ar
    30    10     5    1
    31    25    20   ar
    32    14    12    1
    33    16    18    1
    34    16    19    1
    35    28    29    1
@<TRIPOS>MOLECULE
*****
 33 35 0 0 0
SMALL
GASTEIGER

@<TRIPOS>ATOM
      1 S         142.6023  142.6167  164.1043 S.O2    1  UNL1        0.0633
      2 O         142.2310  141.1747  163.9235 O.2     1  UNL1       -0.1528
      3 O         142.9736  144.0587  164.2851 O.2     1  UNL1       -0.1528
      4 C         145.3839  141.9603  163.1923 C.3     1  UNL1        0.0206
      5 C         144.3466  142.3798  162.1934 C.3     1  UNL1        0.0956
      6 C         144.7000  142.4712  160.7385 C.3     1  UNL1        0.0900
      7 N         143.6626  142.8908  159.7396 N.3     1  UNL1       -0.2698
      8 C         142.2719  143.2190  160.1955 C.3     1  UNL1        0.0915
      9 C         141.9184  143.1277  161.6504 C.3     1  UNL1        0.1131
     10 N         142.9558  142.7081  162.6493 N.3     1  UNL1       -0.1541
     11 C         144.0162  142.9821  158.2847 C.3     1  UNL1        0.0807
     12 C         144.5854  141.7896  157.5748 C.3     1  UNL1        0.0833
     13 C         145.5302  140.9458  156.7715 C.3     1  UNL1        0.0105
     14 C         145.8644  142.3795  157.0590 C.3     1  UNL1        0.0105
     15 C         143.5040  140.7855  157.8441 C.2     1  UNL1        0.2198
     16 N         142.0912  141.0765  157.4331 N.am    1  UNL1       -0.3288
     17 O         143.8357  139.4904  158.5245 O.2     1  UNL1       -0.2753
     18 H         141.8735  141.9265  156.9866 H       1  UNL1        0.1449
     19 H         141.3814  140.4175  157.6098 H       1  UNL1        0.1449
     20 C         142.2488  142.5253  165.5591 C.ar    1  UNL1        0.1222
     21 C         140.8196  142.6615  165.9937 C.ar    1  UNL1        0.0197
     22 C         140.4661  142.5701  167.4486 C.ar    1  UNL1       -0.0004
     23 C         141.5418  142.3425  168.4689 C.ar    1  UNL1        0.0099
     24 C         142.9710  142.2063  168.0343 C.ar    1  UNL1       -0.0004
     25 C         143.3245  142.2977  166.5795 C.ar    1  UNL1        0.0197
     26 C         141.1883  142.2511  169.9238 C.3     1  UNL1        0.1945
     27 C         140.8348  142.1597  171.3787 C.3     1  UNL1        0.0428
     28 O         142.1068  143.3996  170.2191 O.3     1  UNL1       -0.3751
     29 H         142.5203  143.7029  169.3957 H       1  UNL1        0.2110
     30 C         140.2698  141.1026  169.6284 C.3     1  UNL1        0.4230
     31 F         139.3514  139.9540  169.3331 F       1  UNL1       -0.1673
     32 F         141.1786  140.0428  169.0798 F       1  UNL1       -0.1673
     33 F         139.1041  141.9083  170.1203 F       1  UNL1       -0.1673
@<TRIPOS>BOND
     1     5     4    1
     2     5     6    1
     3     6     7    1
     4     7    11    1
     5    11    12    1
     6    12    15    1
     7    15    16   am
     8    15    17    2
     9    12    13    1
    10    13    14    1
    11     7     8    1
    12     8     9    1
    13     9    10    1
    14    10     1    1
    15     1     2    2
    16     1     3    2
    17     1    20    1
    18    20    21   ar
    19    21    22   ar
    20    22    23   ar
    21    23    26    1
    22    26    27    1
    23    26    28    1
    24    26    30    1
    25    30    31    1
    26    30    32    1
    27    30    33    1
    28    23    24   ar
    29    24    25   ar
    30    10     5    1
    31    25    20   ar
    32    14    12    1
    33    16    18    1
    34    16    19    1
    35    28    29    1
@<TRIPOS>MOLECULE
*****
 33 35 0 0 0
SMALL
GASTEIGER

@<TRIPOS>ATOM
      1 S         141.7921  139.0270  164.2775 S.O2    1  UNL1        0.0633
      2 O         141.9776  140.4789  163.9497 O.2     1  UNL1       -0.1528
      3 O         141.6067  137.5751  164.6054 O.2     1  UNL1       -0.1528
      4 C         139.4889  138.9793  162.3558 C.3     1  UNL1        0.0206
      5 C         140.8717  138.6487  161.8776 C.3     1  UNL1        0.0956
      6 C         141.1029  138.2943  160.4385 C.3     1  UNL1        0.0900
      7 N         142.4857  137.9637  159.9603 N.3     1  UNL1       -0.2698
      8 C         143.6372  137.9875  160.9212 C.3     1  UNL1        0.0915
      9 C         143.4060  138.3419  162.3602 C.3     1  UNL1        0.1131
     10 N         142.0233  138.6725  162.8384 N.3     1  UNL1       -0.1541
     11 C         142.7168  137.6093  158.5212 C.3     1  UNL1        0.0807
     12 C         142.2972  138.5586  157.4383 C.3     1  UNL1        0.0833
     13 C         141.5704  139.1021  156.2440 C.3     1  UNL1        0.0105
     14 C         141.2671  137.7199  156.7414 C.3     1  UNL1        0.0105
     15 C         143.1814  139.7270  157.7590 C.2     1  UNL1        0.2198
     16 N         142.6399  140.8838  158.5454 N.am    1  UNL1       -0.3288
     17 O         144.6073  139.7386  157.2933 O.2     1  UNL1       -0.2753
     18 H         141.7041  140.8762  158.8510 H       1  UNL1        0.1449
     19 H         143.2203  141.6507  158.7559 H       1  UNL1        0.1449
     20 C         141.5610  139.3814  165.7166 C.ar    1  UNL1        0.1222
     21 C         142.6888  139.2923  166.7015 C.ar    1  UNL1        0.0197
     22 C         142.4576  139.6468  168.1406 C.ar    1  UNL1       -0.0004
     23 C         141.0986  140.0903  168.5947 C.ar    1  UNL1        0.0099
     24 C         139.9708  140.1794  167.6099 C.ar    1  UNL1       -0.0004
     25 C         140.2019  139.8250  166.1708 C.ar    1  UNL1        0.0197
     26 C         140.8675  140.4448  170.0338 C.3     1  UNL1        0.1945
     27 C         140.6363  140.7993  171.4729 C.3     1  UNL1        0.0428
     28 O         141.2739  139.0593  170.4403 O.3     1  UNL1       -0.3751
     29 H         141.5025  138.5446  169.6506 H       1  UNL1        0.2110
     30 C         140.4611  141.8302  169.6273 C.3     1  UNL1        0.4230
     31 F         140.0547  143.2158  169.2207 F       1  UNL1       -0.1673
     32 F         141.7119  142.4195  169.0456 F       1  UNL1       -0.1673
     33 F         139.0705  141.5685  170.1253 F       1  UNL1       -0.1673
@<TRIPOS>BOND
     1     5     4    1
     2     5     6    1
     3     6     7    1
     4     7    11    1
     5    11    12    1
     6    12    15    1
     7    15    16   am
     8    15    17    2
     9    12    13    1
    10    13    14    1
    11     7     8    1
    12     8     9    1
    13     9    10    1
    14    10     1    1
    15     1     2    2
    16     1     3    2
    17     1    20    1
    18    20    21   ar
    19    21    22   ar
    20    22    23   ar
    21    23    26    1
    22    26    27    1
    23    26    28    1
    24    26    30    1
    25    30    31    1
    26    30    32    1
    27    30    33    1
    28    23    24   ar
    29    24    25   ar
    30    10     5    1
    31    25    20   ar
    32    14    12    1
    33    16    18    1
    34    16    19    1
    35    28    29    1
@<TRIPOS>MOLECULE
*****
 33 35 0 0 0
SMALL
GASTEIGER

@<TRIPOS>ATOM
      1 S         140.7729  142.5917  163.5522 S.O2    1  UNL1        0.0633
      2 O         142.1786  142.2404  163.1644 O.2     1  UNL1       -0.1528
      3 O         139.3671  142.9429  163.9400 O.2     1  UNL1       -0.1528
      4 C         141.4323  145.5000  163.2253 C.3     1  UNL1        0.0206
      5 C         140.9037  144.7154  162.0613 C.3     1  UNL1        0.0956
      6 C         140.7048  145.3849  160.7338 C.3     1  UNL1        0.0900
      7 N         140.1762  144.6003  159.5698 N.3     1  UNL1       -0.2698
      8 C         139.8465  143.1461  159.7332 C.3     1  UNL1        0.0915
      9 C         140.0454  142.4766  161.0607 C.3     1  UNL1        0.1131
     10 N         140.5740  143.2613  162.2247 N.3     1  UNL1       -0.1541
     11 C         139.9774  145.2699  158.2423 C.3     1  UNL1        0.0807
     12 C         140.6292  144.7079  157.0137 C.3     1  UNL1        0.0833
     13 C         140.7796  144.0792  155.6602 C.3     1  UNL1        0.0105
     14 C         139.4121  144.3206  156.2271 C.3     1  UNL1        0.0105
     15 C         142.0726  144.9000  157.3736 C.2     1  UNL1        0.2198
     16 N         142.5741  146.2590  157.7627 N.am    1  UNL1       -0.3288
     17 O         143.0145  143.7329  157.3445 O.2     1  UNL1       -0.2753
     18 H         141.9559  147.0249  157.7818 H       1  UNL1        0.1449
     19 H         143.5215  146.3850  157.9989 H       1  UNL1        0.1449
     20 C         140.9718  141.9221  164.8796 C.ar    1  UNL1        0.1222
     21 C         141.3663  140.4761  164.9386 C.ar    1  UNL1        0.0197
     22 C         141.5652  139.8066  166.2661 C.ar    1  UNL1       -0.0004
     23 C         141.3696  140.5830  167.5345 C.ar    1  UNL1        0.0099
     24 C         140.9751  142.0290  167.4755 C.ar    1  UNL1       -0.0004
     25 C         140.7762  142.6985  166.1481 C.ar    1  UNL1        0.0197
     26 C         141.5685  139.9134  168.8619 C.3     1  UNL1        0.1945
     27 C         141.7674  139.2438  170.1894 C.3     1  UNL1        0.0428
     28 O         142.9595  139.5244  168.4573 O.3     1  UNL1       -0.3751
     29 H         143.1380  139.8488  167.5607 H       1  UNL1        0.2110
     30 C         140.1775  140.3024  169.2666 C.3     1  UNL1        0.4230
     31 F         138.7864  140.6914  169.6712 F       1  UNL1       -0.1673
     32 F         139.2986  139.5620  168.3026 F       1  UNL1       -0.1673
     33 F         140.7364  141.1626  170.3611 F       1  UNL1       -0.1673
@<TRIPOS>BOND
     1     5     4    1
     2     5     6    1
     3     6     7    1
     4     7    11    1
     5    11    12    1
     6    12    15    1
     7    15    16   am
     8    15    17    2
     9    12    13    1
    10    13    14    1
    11     7     8    1
    12     8     9    1
    13     9    10    1
    14    10     1    1
    15     1     2    2
    16     1     3    2
    17     1    20    1
    18    20    21   ar
    19    21    22   ar
    20    22    23   ar
    21    23    26    1
    22    26    27    1
    23    26    28    1
    24    26    30    1
    25    30    31    1
    26    30    32    1
    27    30    33    1
    28    23    24   ar
    29    24    25   ar
    30    10     5    1
    31    25    20   ar
    32    14    12    1
    33    16    18    1
    34    16    19    1
    35    28    29    1
@<TRIPOS>MOLECULE
*****
 33 35 0 0 0
SMALL
GASTEIGER

@<TRIPOS>ATOM
      1 S         141.7392  143.3113  163.9325 S.O2    1  UNL1        0.0633
      2 O         140.8392  142.1691  163.5647 O.2     1  UNL1       -0.1528
      3 O         142.6392  144.4535  164.3003 O.2     1  UNL1       -0.1528
      4 C         139.7108  145.2680  162.9045 C.3     1  UNL1        0.0206
      5 C         140.7614  144.7231  161.9829 C.3     1  UNL1        0.0956
      6 C         140.7979  145.1566  160.5474 C.3     1  UNL1        0.0900
      7 N         141.8485  144.6117  159.6259 N.3     1  UNL1       -0.2698
      8 C         142.8627  143.6333  160.1398 C.3     1  UNL1        0.0915
      9 C         142.8263  143.1999  161.5753 C.3     1  UNL1        0.1131
     10 N         141.7756  143.7448  162.4969 N.3     1  UNL1       -0.1541
     11 C         141.8849  145.0452  158.1903 C.3     1  UNL1        0.0807
     12 C         140.6877  144.8323  157.3120 C.3     1  UNL1        0.0833
     13 C         139.5150  145.1399  156.4288 C.3     1  UNL1        0.0105
     14 C         140.3423  146.2567  156.9929 C.3     1  UNL1        0.0105
     15 C         140.6174  143.3341  157.3261 C.2     1  UNL1        0.2198
     16 N         139.6427  142.6375  158.2286 N.am    1  UNL1       -0.3288
     17 O         141.5218  142.5324  156.4375 O.2     1  UNL1       -0.2753
     18 H         139.0491  143.1636  158.8118 H       1  UNL1        0.1449
     19 H         139.5965  141.6541  158.2378 H       1  UNL1        0.1449
     20 C         141.7028  142.8778  165.3680 C.ar    1  UNL1        0.1222
     21 C         140.3902  142.7707  166.0860 C.ar    1  UNL1        0.0197
     22 C         140.3538  142.3372  167.5216 C.ar    1  UNL1       -0.0004
     23 C         141.6300  142.0107  168.2390 C.ar    1  UNL1        0.0099
     24 C         142.9426  142.1177  167.5210 C.ar    1  UNL1       -0.0004
     25 C         142.9790  142.5513  166.0855 C.ar    1  UNL1        0.0197
     26 C         141.5935  141.5772  169.6745 C.3     1  UNL1        0.1945
     27 C         141.5571  141.1437  171.1101 C.3     1  UNL1        0.0428
     28 O         142.4024  140.3624  169.3282 O.3     1  UNL1       -0.3751
     29 H         142.5990  140.3649  168.3783 H       1  UNL1        0.2110
     30 C         140.7847  142.7920  170.0209 C.3     1  UNL1        0.4230
     31 F         139.9758  144.0069  170.3672 F       1  UNL1       -0.1673
     32 F         141.7741  143.9175  169.9560 F       1  UNL1       -0.1673
     33 F         139.5631  141.9350  170.1741 F       1  UNL1       -0.1673
@<TRIPOS>BOND
     1     5     4    1
     2     5     6    1
     3     6     7    1
     4     7    11    1
     5    11    12    1
     6    12    15    1
     7    15    16   am
     8    15    17    2
     9    12    13    1
    10    13    14    1
    11     7     8    1
    12     8     9    1
    13     9    10    1
    14    10     1    1
    15     1     2    2
    16     1     3    2
    17     1    20    1
    18    20    21   ar
    19    21    22   ar
    20    22    23   ar
    21    23    26    1
    22    26    27    1
    23    26    28    1
    24    26    30    1
    25    30    31    1
    26    30    32    1
    27    30    33    1
    28    23    24   ar
    29    24    25   ar
    30    10     5    1
    31    25    20   ar
    32    14    12    1
    33    16    18    1
    34    16    19    1
    35    28    29    1
@<TRIPOS>MOLECULE
*****
 33 35 0 0 0
SMALL
GASTEIGER

@<TRIPOS>ATOM
      1 S         142.1433  143.0038  163.9631 S.O2    1  UNL1        0.0633
      2 O         141.2003  141.8778  163.6582 O.2     1  UNL1       -0.1528
      3 O         143.0863  144.1297  164.2679 O.2     1  UNL1       -0.1528
      4 C         144.4080  141.6644  162.5217 C.3     1  UNL1        0.0206
      5 C         143.4722  142.5671  161.7737 C.3     1  UNL1        0.0956
      6 C         143.6687  142.8001  160.3050 C.3     1  UNL1        0.0900
      7 N         142.7329  143.7028  159.5570 N.3     1  UNL1       -0.2698
      8 C         141.6006  144.3724  160.2776 C.3     1  UNL1        0.0915
      9 C         141.4041  144.1394  161.7463 C.3     1  UNL1        0.1131
     10 N         142.3399  143.2368  162.4943 N.3     1  UNL1       -0.1541
     11 C         142.9295  143.9358  158.0882 C.3     1  UNL1        0.0807
     12 C         141.7452  143.9634  157.1681 C.3     1  UNL1        0.0833
     13 C         140.6379  143.4768  156.2809 C.3     1  UNL1        0.0105
     14 C         141.5558  142.4925  156.9430 C.3     1  UNL1        0.0105
     15 C         141.5231  145.4438  157.0737 C.2     1  UNL1        0.2198
     16 N         142.5576  146.3926  157.6025 N.am    1  UNL1       -0.3288
     17 O         140.2666  145.9755  156.4503 O.2     1  UNL1       -0.2753
     18 H         143.3822  146.0436  158.0117 H       1  UNL1        0.1449
     19 H         142.4118  147.3643  157.5405 H       1  UNL1        0.1449
     20 C         141.9467  142.7708  165.4317 C.ar    1  UNL1        0.1222
     21 C         143.1033  142.3398  166.2842 C.ar    1  UNL1        0.0197
     22 C         142.9066  142.1068  167.7529 C.ar    1  UNL1       -0.0004
     23 C         141.5535  142.3047  168.3691 C.ar    1  UNL1        0.0099
     24 C         140.3969  142.7357  167.5167 C.ar    1  UNL1       -0.0004
     25 C         140.5935  142.9687  166.0480 C.ar    1  UNL1        0.0197
     26 C         141.3569  142.0717  169.8378 C.3     1  UNL1        0.1945
     27 C         141.1603  141.8387  171.3065 C.3     1  UNL1        0.0428
     28 O         142.4909  143.0066  170.1379 O.3     1  UNL1       -0.3751
     29 H         142.8551  143.3502  169.3072 H       1  UNL1        0.2110
     30 C         140.2229  141.1368  169.5377 C.3     1  UNL1        0.4230
     31 F         139.0890  140.2019  169.2375 F       1  UNL1       -0.1673
     32 F         140.8800  139.9795  168.8457 F       1  UNL1       -0.1673
     33 F         139.2628  142.0964  170.1760 F       1  UNL1       -0.1673
@<TRIPOS>BOND
     1     5     4    1
     2     5     6    1
     3     6     7    1
     4     7    11    1
     5    11    12    1
     6    12    15    1
     7    15    16   am
     8    15    17    2
     9    12    13    1
    10    13    14    1
    11     7     8    1
    12     8     9    1
    13     9    10    1
    14    10     1    1
    15     1     2    2
    16     1     3    2
    17     1    20    1
    18    20    21   ar
    19    21    22   ar
    20    22    23   ar
    21    23    26    1
    22    26    27    1
    23    26    28    1
    24    26    30    1
    25    30    31    1
    26    30    32    1
    27    30    33    1
    28    23    24   ar
    29    24    25   ar
    30    10     5    1
    31    25    20   ar
    32    14    12    1
    33    16    18    1
    34    16    19    1
    35    28    29    1
@<TRIPOS>MOLECULE
*****
 33 35 0 0 0
SMALL
GASTEIGER

@<TRIPOS>ATOM
      1 S         139.2753  141.1376  164.1539 S.O2    1  UNL1        0.0633
      2 O         137.8369  141.3535  164.5205 O.2     1  UNL1       -0.1528
      3 O         140.7136  140.9217  163.7873 O.2     1  UNL1       -0.1528
      4 C         138.5092  138.4487  163.0662 C.3     1  UNL1        0.0206
      5 C         138.5033  139.6503  162.1684 C.3     1  UNL1        0.0956
      6 C         138.1144  139.5075  160.7268 C.3     1  UNL1        0.0900
      7 N         138.1085  140.7092  159.8290 N.3     1  UNL1       -0.2698
      8 C         138.4916  142.0536  160.3728 C.3     1  UNL1        0.0915
      9 C         138.8805  142.1964  161.8144 C.3     1  UNL1        0.1131
     10 N         138.8863  140.9948  162.7122 N.3     1  UNL1       -0.1541
     11 C         137.7196  140.5663  158.3873 C.3     1  UNL1        0.0807
     12 C         138.7489  140.7477  157.3113 C.3     1  UNL1        0.0833
     13 C         139.4608  141.3275  156.1251 C.3     1  UNL1        0.0105
     14 C         138.1929  141.9575  156.6203 C.3     1  UNL1        0.0105
     15 C         139.6623  139.6010  157.6285 C.2     1  UNL1        0.2198
     16 N         140.9290  139.8411  158.3951 N.am    1  UNL1       -0.3288
     17 O         139.3090  138.2142  157.1791 O.2     1  UNL1       -0.2753
     18 H         141.1609  140.7513  158.6901 H       1  UNL1        0.1449
     19 H         141.5285  139.0885  158.6033 H       1  UNL1        0.1449
     20 C         139.6641  141.2805  165.5955 C.ar    1  UNL1        0.1222
     21 C         140.2224  142.5794  166.0966 C.ar    1  UNL1        0.0197
     22 C         140.6113  142.7223  167.5383 C.ar    1  UNL1       -0.0004
     23 C         140.4418  141.5662  168.4789 C.ar    1  UNL1        0.0099
     24 C         139.8835  140.2672  167.9778 C.ar    1  UNL1       -0.0004
     25 C         139.4947  140.1244  166.5362 C.ar    1  UNL1        0.0197
     26 C         140.8307  141.7090  169.9205 C.3     1  UNL1        0.1945
     27 C         141.2196  141.8519  171.3622 C.3     1  UNL1        0.0428
     28 O         139.4570  141.2714  170.3344 O.3     1  UNL1       -0.3751
     29 H         138.9238  141.0900  169.5447 H       1  UNL1        0.2110
     30 C         142.2044  142.1467  169.5066 C.3     1  UNL1        0.4230
     31 F         143.5782  142.5843  169.0926 F       1  UNL1       -0.1673
     32 F         142.8153  140.9120  168.9132 F       1  UNL1       -0.1673
     33 F         141.9174  143.5285  170.0149 F       1  UNL1       -0.1673
@<TRIPOS>BOND
     1     5     4    1
     2     5     6    1
     3     6     7    1
     4     7    11    1
     5    11    12    1
     6    12    15    1
     7    15    16   am
     8    15    17    2
     9    12    13    1
    10    13    14    1
    11     7     8    1
    12     8     9    1
    13     9    10    1
    14    10     1    1
    15     1     2    2
    16     1     3    2
    17     1    20    1
    18    20    21   ar
    19    21    22   ar
    20    22    23   ar
    21    23    26    1
    22    26    27    1
    23    26    28    1
    24    26    30    1
    25    30    31    1
    26    30    32    1
    27    30    33    1
    28    23    24   ar
    29    24    25   ar
    30    10     5    1
    31    25    20   ar
    32    14    12    1
    33    16    18    1
    34    16    19    1
    35    28    29    1
@<TRIPOS>MOLECULE
*****
 33 35 0 0 0
SMALL
GASTEIGER

@<TRIPOS>ATOM
      1 S         141.9423  143.2715  163.9872 S.O2    1  UNL1        0.0633
      2 O         142.9601  144.3371  164.2672 O.2     1  UNL1       -0.1528
      3 O         140.9244  142.2059  163.7072 O.2     1  UNL1       -0.1528
      4 C         143.8548  141.8628  162.1547 C.3     1  UNL1        0.0206
      5 C         142.9346  142.9161  161.6125 C.3     1  UNL1        0.0956
      6 C         142.9706  143.2650  160.1541 C.3     1  UNL1        0.0900
      7 N         142.0504  144.3182  159.6120 N.3     1  UNL1       -0.2698
      8 C         141.0942  145.0225  160.5282 C.3     1  UNL1        0.0915
      9 C         141.0582  144.6736  161.9866 C.3     1  UNL1        0.1131
     10 N         141.9784  143.6204  162.5287 N.3     1  UNL1       -0.1541
     11 C         142.0865  144.6671  158.1535 C.3     1  UNL1        0.0807
     12 C         140.8142  144.7056  157.3599 C.3     1  UNL1        0.0833
     13 C         139.7108  145.2311  156.4902 C.3     1  UNL1        0.0105
     14 C         140.8586  146.1210  156.8651 C.3     1  UNL1        0.0105
     15 C         140.3279  143.3037  157.5791 C.2     1  UNL1        0.2198
     16 N         141.2123  142.1412  157.2380 N.am    1  UNL1       -0.3288
     17 O         138.9572  143.0643  158.1393 O.2     1  UNL1       -0.2753
     18 H         142.1119  142.2983  156.8703 H       1  UNL1        0.1449
     19 H         140.8931  141.2210  157.3819 H       1  UNL1        0.1449
     20 C         141.9063  142.9226  165.4456 C.ar    1  UNL1        0.1222
     21 C         143.1642  142.5061  166.1484 C.ar    1  UNL1        0.0197
     22 C         143.1282  142.1573  167.6069 C.ar    1  UNL1       -0.0004
     23 C         141.8341  142.2249  168.3625 C.ar    1  UNL1        0.0099
     24 C         140.5762  142.6414  167.6596 C.ar    1  UNL1       -0.0004
     25 C         140.6122  142.9903  166.2012 C.ar    1  UNL1        0.0197
     26 C         141.7981  141.8761  169.8209 C.3     1  UNL1        0.1945
     27 C         141.7621  141.5271  171.2793 C.3     1  UNL1        0.0428
     28 O         141.3448  143.2691  170.1429 O.3     1  UNL1       -0.3751
     29 H         141.2690  143.7821  169.3231 H       1  UNL1        0.2110
     30 C         142.2515  140.4830  169.4988 C.3     1  UNL1        0.4230
     31 F         142.7048  139.0898  169.1768 F       1  UNL1       -0.1673
     32 F         141.0879  139.8826  168.7669 F       1  UNL1       -0.1673
     33 F         143.5638  140.7542  170.1729 F       1  UNL1       -0.1673
@<TRIPOS>BOND
     1     5     4    1
     2     5     6    1
     3     6     7    1
     4     7    11    1
     5    11    12    1
     6    12    15    1
     7    15    16   am
     8    15    17    2
     9    12    13    1
    10    13    14    1
    11     7     8    1
    12     8     9    1
    13     9    10    1
    14    10     1    1
    15     1     2    2
    16     1     3    2
    17     1    20    1
    18    20    21   ar
    19    21    22   ar
    20    22    23   ar
    21    23    26    1
    22    26    27    1
    23    26    28    1
    24    26    30    1
    25    30    31    1
    26    30    32    1
    27    30    33    1
    28    23    24   ar
    29    24    25   ar
    30    10     5    1
    31    25    20   ar
    32    14    12    1
    33    16    18    1
    34    16    19    1
    35    28    29    1
@<TRIPOS>MOLECULE
*****
 33 35 0 0 0
SMALL
GASTEIGER

@<TRIPOS>ATOM
      1 S         141.5390  139.8006  159.7091 S.O2    1  UNL1        0.0633
      2 O         140.5098  140.5355  158.9026 O.2     1  UNL1       -0.1528
      3 O         142.5682  139.0656  160.5156 O.2     1  UNL1       -0.1528
      4 C         143.3336  142.2046  159.6933 C.3     1  UNL1        0.0206
      5 C         142.3209  142.0318  160.7863 C.3     1  UNL1        0.0956
      6 C         142.2055  143.0610  161.8713 C.3     1  UNL1        0.0900
      7 N         141.1928  142.8882  162.9643 N.3     1  UNL1       -0.2698
      8 C         140.2956  141.6862  162.9723 C.3     1  UNL1        0.0915
      9 C         140.4110  140.6570  161.8872 C.3     1  UNL1        0.1131
     10 N         141.4236  140.8299  160.7942 N.3     1  UNL1       -0.1541
     11 C         141.0775  143.9175  164.0494 C.3     1  UNL1        0.0807
     12 C         139.7355  144.4860  164.4042 C.3     1  UNL1        0.0833
     13 C         138.5050  144.8028  165.2013 C.3     1  UNL1        0.0105
     14 C         139.5902  143.9588  165.8009 C.3     1  UNL1        0.0105
     15 C         139.4147  145.2108  163.1307 C.2     1  UNL1        0.2198
     16 N         140.4145  146.1561  162.5334 N.am    1  UNL1       -0.3288
     17 O         138.0940  144.9902  162.4545 O.2     1  UNL1       -0.2753
     18 H         141.2813  146.3008  162.9773 H       1  UNL1        0.1449
     19 H         140.2039  146.6317  161.6976 H       1  UNL1        0.1449
     20 C         141.6544  138.7714  158.6240 C.ar    1  UNL1        0.1222
     21 C         140.7154  138.8059  157.4547 C.ar    1  UNL1        0.0197
     22 C         140.8308  137.7766  156.3696 C.ar    1  UNL1       -0.0004
     23 C         141.8851  136.7130  156.4538 C.ar    1  UNL1        0.0099
     24 C         142.8240  136.6785  157.6231 C.ar    1  UNL1       -0.0004
     25 C         142.7087  137.7077  158.7082 C.ar    1  UNL1        0.0197
     26 C         142.0004  135.6838  155.3687 C.3     1  UNL1        0.1945
     27 C         142.1158  134.6546  154.2836 C.3     1  UNL1        0.0428
     28 O         140.5439  135.3595  155.5215 O.3     1  UNL1       -0.3751
     29 H         140.1596  135.9171  156.2160 H       1  UNL1        0.2110
     30 C         143.4569  136.0081  155.2160 C.3     1  UNL1        0.4230
     31 F         144.9135  136.3324  155.0632 F       1  UNL1       -0.1673
     32 F         143.4629  137.4139  154.6930 F       1  UNL1       -0.1673
     33 F         143.8141  134.6400  155.7169 F       1  UNL1       -0.1673
@<TRIPOS>BOND
     1     5     4    1
     2     5     6    1
     3     6     7    1
     4     7    11    1
     5    11    12    1
     6    12    15    1
     7    15    16   am
     8    15    17    2
     9    12    13    1
    10    13    14    1
    11     7     8    1
    12     8     9    1
    13     9    10    1
    14    10     1    1
    15     1     2    2
    16     1     3    2
    17     1    20    1
    18    20    21   ar
    19    21    22   ar
    20    22    23   ar
    21    23    26    1
    22    26    27    1
    23    26    28    1
    24    26    30    1
    25    30    31    1
    26    30    32    1
    27    30    33    1
    28    23    24   ar
    29    24    25   ar
    30    10     5    1
    31    25    20   ar
    32    14    12    1
    33    16    18    1
    34    16    19    1
    35    28    29    1
