@<TRIPOS>MOLECULE
*****
 34 38 0 0 0
SMALL
GASTEIGER

@<TRIPOS>ATOM
      1 C         140.2183  140.6629  170.5210 C.3     1  UNL1        0.0438
      2 C         140.6483  141.2623  169.2148 C.3     1  UNL1        0.1398
      3 C         141.5051  142.0526  170.1588 C.3     1  UNL1        0.0438
      4 O         141.3759  142.1361  168.2366 O.3     1  UNL1       -0.4826
      5 C         141.0973  142.0115  166.7680 C.ar    1  UNL1        0.1361
      6 C         141.8248  142.8854  165.7897 C.ar    1  UNL1        0.0379
      7 C         141.5462  142.7607  164.3212 C.ar    1  UNL1        0.0178
      8 C         140.5400  141.7621  163.8308 C.ar    1  UNL1        0.0505
      9 C         139.8124  140.8883  164.8090 C.ar    1  UNL1        0.0153
     10 C         140.0910  141.0130  166.2777 C.ar    1  UNL1        0.0369
     11 C         139.3635  140.1391  167.2559 C.3     1  UNL1        0.1581
     12 C         138.9817  139.9021  165.8247 C.3     1  UNL1        0.2351
     13 O         137.9446  138.8187  165.7950 O.2     1  UNL1       -0.4478
     14 C         137.6854  138.3862  167.2077 C.2     1  UNL1        0.2770
     15 N         136.7190  137.3241  167.6413 N.pl3   1  UNL1       -0.3133
     16 N         138.5623  139.2022  168.1106 N.2     1  UNL1       -0.2202
     17 C         139.6421  140.2638  168.7245 C.3     1  UNL1        0.1141
     18 C         139.8451  140.5076  168.4516 C.3     1  UNL1        0.1501
     19 O         139.6317  140.2513  168.7385 O.3     1  UNL1       -0.3532
     20 C         139.8451  140.5076  168.4516 C.3     1  UNL1        0.1501
     21 H         136.1849  136.8409  166.9702 H       1  UNL1        0.1466
     22 H         136.6188  137.1103  168.5971 H       1  UNL1        0.1466
     23 N         140.2614  141.6375  162.3622 N.am    1  UNL1       -0.2791
     24 C         139.0189  142.2441  161.7803 C.2     1  UNL1        0.2672
     25 O         138.0551  142.9753  162.6672 O.2     1  UNL1       -0.2682
     26 H         140.8939  141.1576  161.7801 H       1  UNL1        0.1552
     27 C         138.7403  142.1194  160.3118 C.ar    1  UNL1        0.1348
     28 C         138.2404  140.8212  159.7508 C.ar    1  UNL1        0.0245
     29 C         137.9617  140.6965  158.2822 C.ar    1  UNL1        0.0135
     30 C         138.1830  141.8701  157.3745 C.ar    1  UNL1        0.0876
     31 C         138.6830  143.1683  157.9355 C.ar    1  UNL1        0.1092
     32 N         138.9616  143.2930  159.4041 N.ar    1  UNL1       -0.2385
     33 C         137.9044  141.7454  155.9059 C.1     1  UNL1        0.1020
     34 N         137.6258  141.6208  154.4374 N.1     1  UNL1       -0.1908
@<TRIPOS>BOND
     1     1     2    1
     2     2     3    1
     3     2     4    1
     4     4     5    1
     5     5     6   ar
     6     6     7   ar
     7     7     8   ar
     8     8    23    1
     9    23    24   am
    10    24    25    2
    11    24    27    1
    12    27    28   ar
    13    28    29   ar
    14    29    30   ar
    15    30    33    1
    16    33    34    3
    17    30    31   ar
    18    31    32   ar
    19     8     9   ar
    20     9    10   ar
    21    10    11    1
    22    11    12    1
    23    12    13    1
    24    13    14    1
    25    14    15    1
    26    14    16    2
    27    11    17    1
    28    17    18    1
    29    18    19    1
    30    19    20    1
    31    17     2    1
    32    10     5   ar
    33    16    11    1
    34    20    17    1
    35    32    27   ar
    36    23    26    1
    37    15    21    1
    38    15    22    1
@<TRIPOS>MOLECULE
*****
 34 38 0 0 0
SMALL
GASTEIGER

@<TRIPOS>ATOM
      1 C         140.0639  141.0903  170.2774 C.3     1  UNL1        0.0438
      2 C         140.6757  141.3731  168.9373 C.3     1  UNL1        0.1398
      3 C         141.4969  142.2878  169.7969 C.3     1  UNL1        0.0438
      4 O         141.5727  141.9737  167.8958 O.3     1  UNL1       -0.4826
      5 C         141.4361  141.5612  166.4601 C.ar    1  UNL1        0.1361
      6 C         142.3331  142.1618  165.4186 C.ar    1  UNL1        0.0379
      7 C         142.1964  141.7494  163.9830 C.ar    1  UNL1        0.0178
      8 C         141.1627  140.7364  163.5887 C.ar    1  UNL1        0.0505
      9 C         140.2657  140.1358  164.6302 C.ar    1  UNL1        0.0153
     10 C         140.4024  140.5483  166.0660 C.ar    1  UNL1        0.0369
     11 C         139.5054  139.9477  167.1075 C.3     1  UNL1        0.1581
     12 C         139.2529  139.4401  165.7186 C.3     1  UNL1        0.2351
     13 O         138.1341  138.4431  165.7858 O.2     1  UNL1       -0.4478
     14 C         137.6952  138.3345  167.2159 C.2     1  UNL1        0.2770
     15 N         136.6009  137.4512  167.7377 N.pl3   1  UNL1       -0.3133
     16 N         138.5427  139.2644  168.0328 N.2     1  UNL1       -0.2202
     17 C         139.6421  140.3601  168.5431 C.3     1  UNL1        0.1141
     18 C         139.8923  140.5277  168.2526 C.3     1  UNL1        0.1501
     19 O         139.6293  140.3516  168.5580 O.3     1  UNL1       -0.3532
     20 C         139.8923  140.5277  168.2526 C.3     1  UNL1        0.1501
     21 H         136.0983  136.8728  167.1195 H       1  UNL1        0.1466
     22 H         136.3853  137.4498  168.6983 H       1  UNL1        0.1466
     23 N         141.0261  140.3240  162.1531 N.am    1  UNL1       -0.2791
     24 C         141.6401  139.0397  161.6799 C.2     1  UNL1        0.2672
     25 O         142.3907  138.1680  162.6425 O.2     1  UNL1       -0.2682
     26 H         140.5334  140.8961  161.5213 H       1  UNL1        0.1552
     27 C         141.5034  138.6273  160.2442 C.ar    1  UNL1        0.1348
     28 C         140.1624  138.6771  159.5740 C.ar    1  UNL1        0.0245
     29 C         140.0257  138.2647  158.1383 C.ar    1  UNL1        0.0135
     30 C         141.2301  137.8025  157.3728 C.ar    1  UNL1        0.0876
     31 C         142.5711  137.7527  158.0431 C.ar    1  UNL1        0.1092
     32 N         142.7078  138.1651  159.4788 N.ar    1  UNL1       -0.2385
     33 C         141.0934  137.3901  155.9371 C.1     1  UNL1        0.1020
     34 N         140.9568  136.9776  154.5015 N.1     1  UNL1       -0.1908
@<TRIPOS>BOND
     1     1     2    1
     2     2     3    1
     3     2     4    1
     4     4     5    1
     5     5     6   ar
     6     6     7   ar
     7     7     8   ar
     8     8    23    1
     9    23    24   am
    10    24    25    2
    11    24    27    1
    12    27    28   ar
    13    28    29   ar
    14    29    30   ar
    15    30    33    1
    16    33    34    3
    17    30    31   ar
    18    31    32   ar
    19     8     9   ar
    20     9    10   ar
    21    10    11    1
    22    11    12    1
    23    12    13    1
    24    13    14    1
    25    14    15    1
    26    14    16    2
    27    11    17    1
    28    17    18    1
    29    18    19    1
    30    19    20    1
    31    17     2    1
    32    10     5   ar
    33    16    11    1
    34    20    17    1
    35    32    27   ar
    36    23    26    1
    37    15    21    1
    38    15    22    1
@<TRIPOS>MOLECULE
*****
 34 38 0 0 0
SMALL
GASTEIGER

@<TRIPOS>ATOM
      1 C         142.2595  141.7163  167.5691 C.3     1  UNL1        0.0438
      2 C         141.4203  142.5319  166.6306 C.3     1  UNL1        0.1398
      3 C         140.4733  142.4091  167.7873 C.3     1  UNL1        0.0438
      4 O         140.2522  143.3049  166.0940 O.3     1  UNL1       -0.4826
      5 C         140.3226  143.9174  164.7266 C.ar    1  UNL1        0.1361
      6 C         139.1544  144.6904  164.1900 C.ar    1  UNL1        0.0379
      7 C         139.2248  145.3028  162.8225 C.ar    1  UNL1        0.0178
      8 C         140.4634  145.1424  161.9917 C.ar    1  UNL1        0.0505
      9 C         141.6315  144.3694  162.5283 C.ar    1  UNL1        0.0153
     10 C         141.5611  143.7569  163.8958 C.ar    1  UNL1        0.0369
     11 C         142.7292  142.9839  164.4324 C.3     1  UNL1        0.1581
     12 C         142.9445  143.5367  163.0547 C.3     1  UNL1        0.2351
     13 O         144.3184  143.1368  162.6042 O.2     1  UNL1       -0.4478
     14 C         144.9521  142.3370  163.7035 C.2     1  UNL1        0.2770
     15 N         146.3266  141.7370  163.6776 N.pl3   1  UNL1       -0.3133
     16 N         143.9700  142.2424  164.8335 N.2     1  UNL1       -0.2202
     17 C         142.6588  142.3714  165.7998 C.3     1  UNL1        0.1141
     18 C         142.3329  142.5871  165.6501 C.3     1  UNL1        0.1501
     19 O         142.6755  142.3604  165.8075 O.3     1  UNL1       -0.3532
     20 C         142.3329  142.5871  165.6501 C.3     1  UNL1        0.1501
     21 H         146.9000  141.8543  162.8859 H       1  UNL1        0.1466
     22 H         146.6553  141.2259  164.4521 H       1  UNL1        0.1466
     23 N         140.5338  145.7548  160.6243 N.am    1  UNL1       -0.2791
     24 C         140.3452  144.8976  159.4078 C.2     1  UNL1        0.2672
     25 O         140.0863  143.4278  159.5589 O.2     1  UNL1       -0.2682
     26 H         140.7038  146.7195  160.5251 H       1  UNL1        0.1552
     27 C         140.4156  145.5100  158.0404 C.ar    1  UNL1        0.1348
     28 C         141.4009  144.9906  157.0358 C.ar    1  UNL1        0.0245
     29 C         141.4714  145.6031  155.6683 C.ar    1  UNL1        0.0135
     30 C         140.5564  146.7350  155.3055 C.ar    1  UNL1        0.0876
     31 C         139.5711  147.2544  156.3102 C.ar    1  UNL1        0.1092
     32 N         139.5007  146.6420  157.6776 N.ar    1  UNL1       -0.2385
     33 C         140.6268  147.3475  153.9381 C.1     1  UNL1        0.1020
     34 N         140.6972  147.9599  152.5707 N.1     1  UNL1       -0.1908
@<TRIPOS>BOND
     1     1     2    1
     2     2     3    1
     3     2     4    1
     4     4     5    1
     5     5     6   ar
     6     6     7   ar
     7     7     8   ar
     8     8    23    1
     9    23    24   am
    10    24    25    2
    11    24    27    1
    12    27    28   ar
    13    28    29   ar
    14    29    30   ar
    15    30    33    1
    16    33    34    3
    17    30    31   ar
    18    31    32   ar
    19     8     9   ar
    20     9    10   ar
    21    10    11    1
    22    11    12    1
    23    12    13    1
    24    13    14    1
    25    14    15    1
    26    14    16    2
    27    11    17    1
    28    17    18    1
    29    18    19    1
    30    19    20    1
    31    17     2    1
    32    10     5   ar
    33    16    11    1
    34    20    17    1
    35    32    27   ar
    36    23    26    1
    37    15    21    1
    38    15    22    1
@<TRIPOS>MOLECULE
*****
 34 38 0 0 0
SMALL
GASTEIGER

@<TRIPOS>ATOM
      1 C         141.3880  137.4047  156.1729 C.3     1  UNL1        0.0438
      2 C         142.0592  137.5146  157.5099 C.3     1  UNL1        0.1398
      3 C         143.0728  136.6870  156.7767 C.3     1  UNL1        0.0438
      4 O         143.0826  137.3370  158.5922 O.3     1  UNL1       -0.4826
      5 C         142.8591  137.9489  159.9433 C.ar    1  UNL1        0.1361
      6 C         143.8824  137.7713  161.0256 C.ar    1  UNL1        0.0379
      7 C         143.6590  138.3832  162.3767 C.ar    1  UNL1        0.0178
      8 C         142.4123  139.1728  162.6456 C.ar    1  UNL1        0.0505
      9 C         141.3890  139.3504  161.5634 C.ar    1  UNL1        0.0153
     10 C         141.6124  138.7384  160.2122 C.ar    1  UNL1        0.0369
     11 C         140.5891  138.9160  159.1299 C.3     1  UNL1        0.1581
     12 C         140.2299  139.5830  160.4246 C.3     1  UNL1        0.2351
     13 O         138.9014  140.2564  160.2461 O.2     1  UNL1       -0.4478
     14 C         138.4396  140.0057  158.8412 C.2     1  UNL1        0.2770
     15 N         137.1595  140.4970  158.2330 N.pl3   1  UNL1       -0.3133
     16 N         139.4827  139.1772  158.1513 N.2     1  UNL1       -0.2202
     17 C         140.8125  138.3041  157.7788 C.3     1  UNL1        0.1141
     18 C         141.0980  138.2546  158.0807 C.3     1  UNL1        0.1501
     19 O         140.7979  138.3067  157.7633 O.3     1  UNL1       -0.3532
     20 C         141.0980  138.2546  158.0807 C.3     1  UNL1        0.1501
     21 H         136.5353  141.0373  158.7692 H       1  UNL1        0.1466
     22 H         136.9436  140.2791  157.2974 H       1  UNL1        0.1466
     23 N         142.1888  139.7847  163.9968 N.am    1  UNL1       -0.2791
     24 C         141.6723  138.9425  165.1255 C.2     1  UNL1        0.2672
     25 O         141.3792  137.4883  164.9029 O.2     1  UNL1       -0.2682
     26 H         142.3812  140.7391  164.1428 H       1  UNL1        0.1552
     27 C         141.4489  139.5544  166.4766 C.ar    1  UNL1        0.1348
     28 C         140.0549  139.8508  166.9444 C.ar    1  UNL1        0.0245
     29 C         139.8314  140.4628  168.2956 C.ar    1  UNL1        0.0135
     30 C         141.0020  140.7782  169.1789 C.ar    1  UNL1        0.0876
     31 C         142.3961  140.4817  168.7111 C.ar    1  UNL1        0.1092
     32 N         142.6195  139.8698  167.3599 N.ar    1  UNL1       -0.2385
     33 C         140.7786  141.3901  170.5301 C.1     1  UNL1        0.1020
     34 N         140.5552  142.0020  171.8812 N.1     1  UNL1       -0.1908
@<TRIPOS>BOND
     1     1     2    1
     2     2     3    1
     3     2     4    1
     4     4     5    1
     5     5     6   ar
     6     6     7   ar
     7     7     8   ar
     8     8    23    1
     9    23    24   am
    10    24    25    2
    11    24    27    1
    12    27    28   ar
    13    28    29   ar
    14    29    30   ar
    15    30    33    1
    16    33    34    3
    17    30    31   ar
    18    31    32   ar
    19     8     9   ar
    20     9    10   ar
    21    10    11    1
    22    11    12    1
    23    12    13    1
    24    13    14    1
    25    14    15    1
    26    14    16    2
    27    11    17    1
    28    17    18    1
    29    18    19    1
    30    19    20    1
    31    17     2    1
    32    10     5   ar
    33    16    11    1
    34    20    17    1
    35    32    27   ar
    36    23    26    1
    37    15    21    1
    38    15    22    1
@<TRIPOS>MOLECULE
*****
 34 38 0 0 0
SMALL
GASTEIGER

@<TRIPOS>ATOM
      1 C         140.0236  141.5125  169.9291 C.3     1  UNL1        0.0438
      2 C         139.6116  140.5658  168.8409 C.3     1  UNL1        0.1398
      3 C         138.5724  140.2440  169.8736 C.3     1  UNL1        0.0438
      4 O         138.8386  139.5074  168.1114 O.3     1  UNL1       -0.4826
      5 C         139.2480  139.0996  166.7272 C.ar    1  UNL1        0.1361
      6 C         138.4750  138.0411  165.9977 C.ar    1  UNL1        0.0379
      7 C         138.8844  137.6333  164.6135 C.ar    1  UNL1        0.0178
      8 C         140.0668  138.2840  163.9587 C.ar    1  UNL1        0.0505
      9 C         140.8397  139.3424  164.6882 C.ar    1  UNL1        0.0153
     10 C         140.4303  139.7502  166.0725 C.ar    1  UNL1        0.0369
     11 C         141.2033  140.8087  166.8020 C.3     1  UNL1        0.1581
     12 C         141.7285  140.5063  165.4298 C.3     1  UNL1        0.2351
     13 O         142.9179  141.3868  165.1843 O.2     1  UNL1       -0.4478
     14 C         143.1278  142.2333  166.4046 C.2     1  UNL1        0.2770
     15 N         144.2077  143.2573  166.5923 N.pl3   1  UNL1       -0.3133
     16 N         142.0681  141.8760  167.4045 N.2     1  UNL1       -0.2202
     17 C         140.7939  141.2165  168.1862 C.3     1  UNL1        0.1141
     18 C         140.5783  140.9212  167.9827 C.3     1  UNL1        0.1501
     19 O         140.8049  141.2316  168.1966 O.3     1  UNL1       -0.3532
     20 C         140.5783  140.9212  167.9827 C.3     1  UNL1        0.1501
     21 H         144.8606  143.4214  165.8739 H       1  UNL1        0.1466
     22 H         144.2636  143.7652  167.4338 H       1  UNL1        0.1466
     23 N         140.4761  137.8762  162.5745 N.am    1  UNL1       -0.2791
     24 C         140.3531  138.8485  161.4389 C.2     1  UNL1        0.2672
     25 O         139.8208  140.2286  161.6876 O.2     1  UNL1       -0.2682
     26 H         140.8256  136.9703  162.4113 H       1  UNL1        0.1552
     27 C         140.7625  138.4407  160.0547 C.ar    1  UNL1        0.1348
     28 C         142.1859  138.0587  159.7756 C.ar    1  UNL1        0.0245
     29 C         142.5953  137.6508  158.3913 C.ar    1  UNL1        0.0135
     30 C         141.5813  137.6251  157.2863 C.ar    1  UNL1        0.0876
     31 C         140.1579  138.0071  157.5655 C.ar    1  UNL1        0.1092
     32 N         139.7485  138.4149  158.9497 N.ar    1  UNL1       -0.2385
     33 C         141.9907  137.2173  155.9020 C.1     1  UNL1        0.1020
     34 N         142.4000  136.8095  154.5178 N.1     1  UNL1       -0.1908
@<TRIPOS>BOND
     1     1     2    1
     2     2     3    1
     3     2     4    1
     4     4     5    1
     5     5     6   ar
     6     6     7   ar
     7     7     8   ar
     8     8    23    1
     9    23    24   am
    10    24    25    2
    11    24    27    1
    12    27    28   ar
    13    28    29   ar
    14    29    30   ar
    15    30    33    1
    16    33    34    3
    17    30    31   ar
    18    31    32   ar
    19     8     9   ar
    20     9    10   ar
    21    10    11    1
    22    11    12    1
    23    12    13    1
    24    13    14    1
    25    14    15    1
    26    14    16    2
    27    11    17    1
    28    17    18    1
    29    18    19    1
    30    19    20    1
    31    17     2    1
    32    10     5   ar
    33    16    11    1
    34    20    17    1
    35    32    27   ar
    36    23    26    1
    37    15    21    1
    38    15    22    1
@<TRIPOS>MOLECULE
*****
 34 38 0 0 0
SMALL
GASTEIGER

@<TRIPOS>ATOM
      1 C         137.6408  143.3334  164.6542 C.3     1  UNL1        0.0438
      2 C         137.8819  143.0290  163.2052 C.3     1  UNL1        0.1398
      3 C         137.5980  144.4993  163.1188 C.3     1  UNL1        0.0438
      4 O         138.0244  143.2352  161.7263 O.3     1  UNL1       -0.4826
      5 C         138.3671  142.0769  160.8371 C.ar    1  UNL1        0.1361
      6 C         138.5095  142.2831  159.3582 C.ar    1  UNL1        0.0379
      7 C         138.8522  141.1248  158.4689 C.ar    1  UNL1        0.0178
      8 C         139.0524  139.7601  159.0586 C.ar    1  UNL1        0.0505
      9 C         138.9099  139.5538  160.5375 C.ar    1  UNL1        0.0153
     10 C         138.5672  140.7123  161.4267 C.ar    1  UNL1        0.0369
     11 C         138.4248  140.5060  162.9056 C.3     1  UNL1        0.1581
     12 C         138.7690  139.2591  162.1461 C.3     1  UNL1        0.2351
     13 O         138.8729  138.1311  163.1295 O.2     1  UNL1       -0.4478
     14 C         138.5928  138.6808  164.4967 C.2     1  UNL1        0.2770
     15 N         138.5901  137.8999  165.7774 N.pl3   1  UNL1       -0.3133
     16 N         138.3158  140.1486  164.3584 N.2     1  UNL1       -0.2202
     17 C         138.0821  141.6644  163.7949 C.3     1  UNL1        0.1141
     18 C         138.1218  141.7219  163.3823 C.3     1  UNL1        0.1501
     19 O         138.0801  141.6614  163.8160 O.3     1  UNL1       -0.3532
     20 C         138.1218  141.7219  163.3823 C.3     1  UNL1        0.1501
     21 H         138.7849  136.9350  165.7659 H       1  UNL1        0.1466
     22 H         138.3935  138.3524  166.6294 H       1  UNL1        0.1466
     23 N         139.3951  138.6018  158.1693 N.am    1  UNL1       -0.2791
     24 C         140.8119  138.3917  157.7237 C.2     1  UNL1        0.2672
     25 O         141.8860  139.3401  158.1674 O.2     1  UNL1       -0.2682
     26 H         138.6901  137.9793  157.8781 H       1  UNL1        0.1552
     27 C         141.1546  137.2334  156.8345 C.ar    1  UNL1        0.1348
     28 C         140.2614  136.8833  155.6814 C.ar    1  UNL1        0.0245
     29 C         140.6041  135.7249  154.7921 C.ar    1  UNL1        0.0135
     30 C         141.8399  134.9167  155.0559 C.ar    1  UNL1        0.0876
     31 C         142.7330  135.2669  156.2091 C.ar    1  UNL1        0.1092
     32 N         142.3904  136.4252  157.0983 N.ar    1  UNL1       -0.2385
     33 C         142.1825  133.7583  154.1667 C.1     1  UNL1        0.1020
     34 N         142.5252  132.6000  153.2775 N.1     1  UNL1       -0.1908
@<TRIPOS>BOND
     1     1     2    1
     2     2     3    1
     3     2     4    1
     4     4     5    1
     5     5     6   ar
     6     6     7   ar
     7     7     8   ar
     8     8    23    1
     9    23    24   am
    10    24    25    2
    11    24    27    1
    12    27    28   ar
    13    28    29   ar
    14    29    30   ar
    15    30    33    1
    16    33    34    3
    17    30    31   ar
    18    31    32   ar
    19     8     9   ar
    20     9    10   ar
    21    10    11    1
    22    11    12    1
    23    12    13    1
    24    13    14    1
    25    14    15    1
    26    14    16    2
    27    11    17    1
    28    17    18    1
    29    18    19    1
    30    19    20    1
    31    17     2    1
    32    10     5   ar
    33    16    11    1
    34    20    17    1
    35    32    27   ar
    36    23    26    1
    37    15    21    1
    38    15    22    1
@<TRIPOS>MOLECULE
*****
 34 38 0 0 0
SMALL
GASTEIGER

@<TRIPOS>ATOM
      1 C         144.7141  130.4250  157.5440 C.3     1  UNL1        0.0438
      2 C         144.3604  131.8688  157.3423 C.3     1  UNL1        0.1398
      3 C         145.5937  132.0176  158.1830 C.3     1  UNL1        0.0438
      4 O         144.4351  133.3642  157.4326 O.3     1  UNL1       -0.4826
      5 C         143.3994  134.2093  156.7523 C.ar    1  UNL1        0.1361
      6 C         143.4741  135.7047  156.8426 C.ar    1  UNL1        0.0379
      7 C         142.4383  136.5499  156.1623 C.ar    1  UNL1        0.0178
      8 C         141.3277  135.8996  155.3916 C.ar    1  UNL1        0.0505
      9 C         141.2530  134.4042  155.3013 C.ar    1  UNL1        0.0153
     10 C         142.2889  133.5590  155.9816 C.ar    1  UNL1        0.0369
     11 C         142.2142  132.0636  155.8913 C.3     1  UNL1        0.1581
     12 C         141.1125  132.7746  155.1627 C.3     1  UNL1        0.2351
     13 O         140.2278  131.7385  154.5350 O.2     1  UNL1       -0.4478
     14 C         140.7827  130.3872  154.8757 C.2     1  UNL1        0.2770
     15 N         140.2104  129.0669  154.4525 N.pl3   1  UNL1       -0.3133
     16 N         142.0103  130.5881  155.7140 N.2     1  UNL1       -0.2202
     17 C         143.2499  131.2185  156.5717 C.3     1  UNL1        0.1141
     18 C         143.2708  131.6357  156.5969 C.3     1  UNL1        0.1501
     19 O         143.2489  131.1972  156.5704 O.3     1  UNL1       -0.3532
     20 C         143.2708  131.6357  156.5969 C.3     1  UNL1        0.1501
     21 H         139.3964  129.0377  153.8994 H       1  UNL1        0.1466
     22 H         140.6488  128.2294  154.7277 H       1  UNL1        0.1466
     23 N         140.2920  136.7447  154.7112 N.am    1  UNL1       -0.2791
     24 C         139.2726  137.4834  155.5270 C.2     1  UNL1        0.2672
     25 O         139.2892  137.3768  157.0232 O.2     1  UNL1       -0.2682
     26 H         140.2811  136.8146  153.7293 H       1  UNL1        0.1552
     27 C         138.2369  138.3285  154.8467 C.ar    1  UNL1        0.1348
     28 C         137.6579  137.8927  153.5334 C.ar    1  UNL1        0.0245
     29 C         136.6220  138.7379  152.8530 C.ar    1  UNL1        0.0135
     30 C         136.1653  140.0188  153.4860 C.ar    1  UNL1        0.0876
     31 C         136.7443  140.4545  154.7994 C.ar    1  UNL1        0.1092
     32 N         137.7801  139.6094  155.4797 N.ar    1  UNL1       -0.2385
     33 C         135.1295  140.8639  152.8057 C.1     1  UNL1        0.1020
     34 N         134.0937  141.7090  152.1253 N.1     1  UNL1       -0.1908
@<TRIPOS>BOND
     1     1     2    1
     2     2     3    1
     3     2     4    1
     4     4     5    1
     5     5     6   ar
     6     6     7   ar
     7     7     8   ar
     8     8    23    1
     9    23    24   am
    10    24    25    2
    11    24    27    1
    12    27    28   ar
    13    28    29   ar
    14    29    30   ar
    15    30    33    1
    16    33    34    3
    17    30    31   ar
    18    31    32   ar
    19     8     9   ar
    20     9    10   ar
    21    10    11    1
    22    11    12    1
    23    12    13    1
    24    13    14    1
    25    14    15    1
    26    14    16    2
    27    11    17    1
    28    17    18    1
    29    18    19    1
    30    19    20    1
    31    17     2    1
    32    10     5   ar
    33    16    11    1
    34    20    17    1
    35    32    27   ar
    36    23    26    1
    37    15    21    1
    38    15    22    1
@<TRIPOS>MOLECULE
*****
 34 38 0 0 0
SMALL
GASTEIGER

@<TRIPOS>ATOM
      1 C         143.0892  142.4377  167.6738 C.3     1  UNL1        0.0438
      2 C         142.7024  141.2335  166.8673 C.3     1  UNL1        0.1398
      3 C         142.5910  140.6667  168.2516 C.3     1  UNL1        0.0438
      4 O         142.2769  139.8325  166.5416 O.3     1  UNL1       -0.4826
      5 C         142.0972  139.4165  165.1117 C.ar    1  UNL1        0.1361
      6 C         141.6716  138.0154  164.7860 C.ar    1  UNL1        0.0379
      7 C         141.4919  137.5994  163.3562 C.ar    1  UNL1        0.0178
      8 C         141.7377  138.5845  162.2519 C.ar    1  UNL1        0.0505
      9 C         142.1632  139.9855  162.5776 C.ar    1  UNL1        0.0153
     10 C         142.3429  140.4015  164.0075 C.ar    1  UNL1        0.0369
     11 C         142.7685  141.8025  164.3332 C.3     1  UNL1        0.1581
     12 C         142.6302  141.5328  162.8641 C.3     1  UNL1        0.2351
     13 O         142.9720  142.7939  162.1271 O.2     1  UNL1       -0.4478
     14 C         143.3214  143.8429  163.1407 C.2     1  UNL1        0.2770
     15 N         143.7257  145.2564  162.8432 N.pl3   1  UNL1       -0.3133
     16 N         143.1956  143.2302  164.5042 N.2     1  UNL1       -0.2202
     17 C         142.9482  142.2185  165.7631 C.3     1  UNL1        0.1141
     18 C         142.8295  141.8276  165.6722 C.3     1  UNL1        0.1501
     19 O         142.9543  142.2385  165.7677 O.3     1  UNL1       -0.3532
     20 C         142.8295  141.8276  165.6722 C.3     1  UNL1        0.1501
     21 H         143.7798  145.5669  161.9105 H       1  UNL1        0.1466
     22 H         143.9369  145.8736  163.5805 H       1  UNL1        0.1466
     23 N         141.5580  138.1685  160.8220 N.am    1  UNL1       -0.2791
     24 C         142.7486  138.0662  159.9153 C.2     1  UNL1        0.2672
     25 O         144.1189  138.3799  160.4386 O.2     1  UNL1       -0.2682
     26 H         140.6586  137.9625  160.4786 H       1  UNL1        0.1552
     27 C         142.5689  137.6502  158.4854 C.ar    1  UNL1        0.1348
     28 C         141.6079  138.3913  157.6039 C.ar    1  UNL1        0.0245
     29 C         141.4282  137.9753  156.1739 C.ar    1  UNL1        0.0135
     30 C         142.2094  136.8182  155.6256 C.ar    1  UNL1        0.0876
     31 C         143.1704  136.0770  156.5073 C.ar    1  UNL1        0.1092
     32 N         143.3501  136.4930  157.9371 N.ar    1  UNL1       -0.2385
     33 C         142.0297  136.4021  154.1957 C.1     1  UNL1        0.1020
     34 N         141.8499  135.9861  152.7659 N.1     1  UNL1       -0.1908
@<TRIPOS>BOND
     1     1     2    1
     2     2     3    1
     3     2     4    1
     4     4     5    1
     5     5     6   ar
     6     6     7   ar
     7     7     8   ar
     8     8    23    1
     9    23    24   am
    10    24    25    2
    11    24    27    1
    12    27    28   ar
    13    28    29   ar
    14    29    30   ar
    15    30    33    1
    16    33    34    3
    17    30    31   ar
    18    31    32   ar
    19     8     9   ar
    20     9    10   ar
    21    10    11    1
    22    11    12    1
    23    12    13    1
    24    13    14    1
    25    14    15    1
    26    14    16    2
    27    11    17    1
    28    17    18    1
    29    18    19    1
    30    19    20    1
    31    17     2    1
    32    10     5   ar
    33    16    11    1
    34    20    17    1
    35    32    27   ar
    36    23    26    1
    37    15    21    1
    38    15    22    1
@<TRIPOS>MOLECULE
*****
 34 38 0 0 0
SMALL
GASTEIGER

@<TRIPOS>ATOM
      1 C         142.4747  130.9480  153.2490 C.3     1  UNL1        0.0438
      2 C         142.3993  132.4434  153.3394 C.3     1  UNL1        0.1398
      3 C         141.7621  132.2310  151.9983 C.3     1  UNL1        0.0438
      4 O         142.1026  133.8651  152.9640 O.3     1  UNL1       -0.4826
      5 C         142.4693  134.9797  153.8984 C.ar    1  UNL1        0.1361
      6 C         142.1726  136.4013  153.5230 C.ar    1  UNL1        0.0379
      7 C         142.5393  137.5159  154.4574 C.ar    1  UNL1        0.0178
      8 C         143.2028  137.2089  155.7673 C.ar    1  UNL1        0.0505
      9 C         143.4995  135.7873  156.1427 C.ar    1  UNL1        0.0153
     10 C         143.1327  134.6727  155.2082 C.ar    1  UNL1        0.0369
     11 C         143.4294  133.2510  155.5836 C.3     1  UNL1        0.1581
     12 C         143.8521  134.2552  156.6147 C.3     1  UNL1        0.2351
     13 O         144.4706  133.5107  157.7607 O.2     1  UNL1       -0.4478
     14 C         144.4302  132.0464  157.4379 C.2     1  UNL1        0.2770
     15 N         144.9431  130.9374  158.3079 N.pl3   1  UNL1       -0.3133
     16 N         143.7867  131.8859  156.0924 N.2     1  UNL1       -0.2202
     17 C         143.0627  132.1364  154.6492 C.3     1  UNL1        0.1141
     18 C         142.9799  132.5331  154.5445 C.3     1  UNL1        0.1501
     19 O         143.0669  132.1161  154.6546 O.3     1  UNL1       -0.3532
     20 C         142.9799  132.5331  154.5445 C.3     1  UNL1        0.1501
     21 H         145.3517  131.1442  159.1794 H       1  UNL1        0.1466
     22 H         144.8712  130.0026  158.0073 H       1  UNL1        0.1466
     23 N         143.5695  138.3236  156.7016 N.am    1  UNL1       -0.2791
     24 C         142.6214  138.7328  157.7896 C.2     1  UNL1        0.2672
     25 O         141.3065  138.0273  157.9432 O.2     1  UNL1       -0.2682
     26 H         144.4325  138.7866  156.6009 H       1  UNL1        0.1552
     27 C         142.9881  139.8474  158.7240 C.ar    1  UNL1        0.1348
     28 C         143.5763  139.5362  160.0683 C.ar    1  UNL1        0.0245
     29 C         143.9431  140.6508  161.0027 C.ar    1  UNL1        0.0135
     30 C         143.7215  142.0766  160.5929 C.ar    1  UNL1        0.0876
     31 C         143.1332  142.3878  159.2485 C.ar    1  UNL1        0.1092
     32 N         142.7665  141.2732  158.3141 N.ar    1  UNL1       -0.2385
     33 C         144.0882  143.1913  161.5272 C.1     1  UNL1        0.1020
     34 N         144.4550  144.3059  162.4616 N.1     1  UNL1       -0.1908
@<TRIPOS>BOND
     1     1     2    1
     2     2     3    1
     3     2     4    1
     4     4     5    1
     5     5     6   ar
     6     6     7   ar
     7     7     8   ar
     8     8    23    1
     9    23    24   am
    10    24    25    2
    11    24    27    1
    12    27    28   ar
    13    28    29   ar
    14    29    30   ar
    15    30    33    1
    16    33    34    3
    17    30    31   ar
    18    31    32   ar
    19     8     9   ar
    20     9    10   ar
    21    10    11    1
    22    11    12    1
    23    12    13    1
    24    13    14    1
    25    14    15    1
    26    14    16    2
    27    11    17    1
    28    17    18    1
    29    18    19    1
    30    19    20    1
    31    17     2    1
    32    10     5   ar
    33    16    11    1
    34    20    17    1
    35    32    27   ar
    36    23    26    1
    37    15    21    1
    38    15    22    1
