@<TRIPOS>MOLECULE
*****
 43 48 0 0 0
SMALL
GASTEIGER

@<TRIPOS>ATOM
      1 N         141.6947  142.1337  157.7116 N.am    1  UNL1       -0.2975
      2 C         142.8538  141.2201  157.9795 C.2     1  UNL1        0.2459
      3 O         144.1097  141.7625  158.5949 O.2     1  UNL1       -0.2701
      4 H         140.8704  141.7776  157.3078 H       1  UNL1        0.1499
      5 C         142.7571  139.7641  157.6321 C.ar    1  UNL1        0.0534
      6 C         142.4398  138.7581  158.6984 C.ar    1  UNL1        0.0047
      7 C         142.3430  137.3020  158.3510 C.ar    1  UNL1        0.0048
      8 C         142.5636  136.8521  156.9372 C.ar    1  UNL1        0.0536
      9 C         142.8809  137.8582  155.8709 C.ar    1  UNL1        0.0048
     10 C         142.9777  139.3142  156.2182 C.ar    1  UNL1        0.0047
     11 C         142.4669  135.3961  156.5897 C.ar    1  UNL1        0.2296
     12 N         141.5034  134.7840  155.6166 N.ar    1  UNL1       -0.2082
     13 C         141.7577  133.3062  155.5799 C.ar    1  UNL1        0.1192
     14 C         141.1136  132.1959  154.8037 C.ar    1  UNL1        0.0326
     15 C         141.5903  130.7844  154.9781 C.ar    1  UNL1        0.0698
     16 C         142.7109  130.4831  155.9285 C.ar    1  UNL1        0.0091
     17 C         143.3550  131.5934  156.7046 C.ar    1  UNL1        0.0143
     18 C         142.8784  133.0049  156.5303 C.ar    1  UNL1        0.1607
     19 O         143.3167  134.2966  157.1544 O.2     1  UNL1       -0.4349
     20 C         144.4757  131.2921  157.6550 C.3     1  UNL1        0.0254
     21 C         145.5065  132.3396  157.9553 C.3     1  UNL1        0.0048
     22 C         144.5655  129.9433  158.3052 C.3     1  UNL1        0.0048
     23 C         140.9461  129.6740  154.2019 C.1     1  UNL1        0.1005
     24 N         140.3020  128.5637  153.4258 N.1     1  UNL1       -0.1908
     25 C         141.7914  143.5897  158.0591 C.3     1  UNL1        0.1355
     26 N         140.8923  144.1404  161.7946 N.am    1  UNL1       -0.2059
     27 C         141.4203  143.2767  160.6877 C.3     1  UNL1        0.1483
     28 C         141.3614  144.0675  159.4145 C.3     1  UNL1        0.2101
     29 O         140.7970  145.4199  159.7344 O.3     1  UNL1       -0.4345
     30 C         140.5071  145.4650  161.2055 C.2     1  UNL1        0.4098
     31 O         139.9328  146.6300  161.9556 O.2     1  UNL1       -0.2258
     32 C         140.5279  142.9643  166.1229 C.ar    1  UNL1        0.0253
     33 C         139.6109  144.0030  165.5482 C.ar    1  UNL1        0.0049
     34 C         139.7323  144.3950  164.1054 C.ar    1  UNL1        0.0348
     35 C         140.7708  143.7484  163.2373 C.ar    1  UNL1        0.1400
     36 N         141.6878  142.7097  163.8120 N.ar    1  UNL1       -0.2287
     37 C         141.5663  142.3176  165.2549 C.ar    1  UNL1        0.1008
     38 C         140.2167  140.0779  170.5333 C.3     1  UNL1        0.0382
     39 C         140.2634  141.2455  169.5929 C.ar    1  UNL1        0.0076
     40 C         140.1756  142.6924  169.9787 C.ar    1  UNL1        0.0027
     41 C         140.2640  143.5124  168.7257 C.ar    1  UNL1        0.0067
     42 C         140.4064  142.5723  167.5656 C.ar    1  UNL1        0.0306
     43 S         140.4060  141.1712  168.1016 S.2     1  UNL1       -0.0912
@<TRIPOS>BOND
     1    38    39    1
     2    39    40   ar
     3    40    41   ar
     4    41    42   ar
     5    42    32    1
     6    32    33   ar
     7    33    34   ar
     8    34    35   ar
     9    35    26    1
    10    26    27    1
    11    27    28    1
    12    28    25    1
    13    25     1    1
    14     1     2   am
    15     2     3    2
    16     2     5    1
    17     5     6   ar
    18     6     7   ar
    19     7     8   ar
    20     8    11    1
    21    11    12   ar
    22    12    13   ar
    23    13    14   ar
    24    14    15   ar
    25    15    23    1
    26    23    24    3
    27    15    16   ar
    28    16    17   ar
    29    17    20    1
    30    20    21    1
    31    20    22    1
    32    17    18   ar
    33    18    19   ar
    34     8     9   ar
    35     9    10   ar
    36    28    29    1
    37    29    30    1
    38    30    31    2
    39    35    36   ar
    40    36    37   ar
    41    42    43   ar
    42    43    39   ar
    43    37    32   ar
    44    30    26   am
    45    10     5   ar
    46    19    11   ar
    47    18    13   ar
    48     1     4    1
@<TRIPOS>MOLECULE
*****
 43 48 0 0 0
SMALL
GASTEIGER

@<TRIPOS>ATOM
      1 N         140.7155  141.8192  157.7299 N.am    1  UNL1       -0.2975
      2 C         142.0831  141.2050  157.7762 C.2     1  UNL1        0.2459
      3 O         143.2842  142.0669  158.0302 O.2     1  UNL1       -0.2701
      4 H         139.9272  141.2535  157.5632 H       1  UNL1        0.1499
      5 C         142.2497  139.7289  157.5683 C.ar    1  UNL1        0.0534
      6 C         142.5622  138.8379  158.7339 C.ar    1  UNL1        0.0047
      7 C         142.7288  137.3617  158.5262 C.ar    1  UNL1        0.0048
      8 C         142.5829  136.7765  157.1528 C.ar    1  UNL1        0.0536
      9 C         142.2704  137.6674  155.9872 C.ar    1  UNL1        0.0048
     10 C         142.1038  139.1436  156.1950 C.ar    1  UNL1        0.0047
     11 C         142.7495  135.3003  156.9450 C.ar    1  UNL1        0.2296
     12 N         143.7238  134.4134  157.6619 N.ar    1  UNL1       -0.2082
     13 C         143.5474  133.0169  157.1437 C.ar    1  UNL1        0.1192
     14 C         144.2334  131.7266  157.4823 C.ar    1  UNL1        0.0326
     15 C         143.8359  130.4601  156.7837 C.ar    1  UNL1        0.0698
     16 C         142.7526  130.4839  155.7466 C.ar    1  UNL1        0.0091
     17 C         142.0667  131.7742  155.4079 C.ar    1  UNL1        0.0143
     18 C         142.4641  133.0407  156.1065 C.ar    1  UNL1        0.1607
     19 O         141.9709  134.4519  155.9837 O.2     1  UNL1       -0.4349
     20 C         140.9833  131.7979  154.3707 C.3     1  UNL1        0.0254
     21 C         139.8160  130.8628  154.4839 C.3     1  UNL1        0.0048
     22 C         141.0674  132.7569  153.2202 C.3     1  UNL1        0.0048
     23 C         144.5219  129.1697  157.1223 C.1     1  UNL1        0.1005
     24 N         145.2078  127.8795  157.4610 N.1     1  UNL1       -0.1908
     25 C         140.5489  143.2954  157.9377 C.3     1  UNL1        0.1355
     26 N         140.3354  144.0100  161.7468 N.am    1  UNL1       -0.2059
     27 C         140.4930  143.0567  160.5995 C.3     1  UNL1        0.1483
     28 C         140.4340  143.8490  159.3272 C.3     1  UNL1        0.2101
     29 O         140.2398  145.2919  159.6882 O.3     1  UNL1       -0.4345
     30 C         140.1789  145.3914  161.1836 C.2     1  UNL1        0.4098
     31 O         139.9939  146.6511  161.9766 O.2     1  UNL1       -0.2258
     32 C         140.3325  142.9176  166.1122 C.ar    1  UNL1        0.0253
     33 C         139.2280  143.7625  165.5498 C.ar    1  UNL1        0.0049
     34 C         139.2290  144.1267  164.0947 C.ar    1  UNL1        0.0348
     35 C         140.3344  143.6459  163.2019 C.ar    1  UNL1        0.1400
     36 N         141.4389  142.8009  163.7644 N.ar    1  UNL1       -0.2287
     37 C         141.4379  142.4368  165.2196 C.ar    1  UNL1        0.1008
     38 C         140.3174  140.1155  170.5876 C.3     1  UNL1        0.0382
     39 C         140.3246  141.2655  169.6244 C.ar    1  UNL1        0.0076
     40 C         140.3355  142.7206  169.9887 C.ar    1  UNL1        0.0027
     41 C         140.3398  143.5165  168.7172 C.ar    1  UNL1        0.0067
     42 C         140.3315  142.5534  167.5674 C.ar    1  UNL1        0.0306
     43 S         140.3221  141.1621  168.1281 S.2     1  UNL1       -0.0912
@<TRIPOS>BOND
     1    38    39    1
     2    39    40   ar
     3    40    41   ar
     4    41    42   ar
     5    42    32    1
     6    32    33   ar
     7    33    34   ar
     8    34    35   ar
     9    35    26    1
    10    26    27    1
    11    27    28    1
    12    28    25    1
    13    25     1    1
    14     1     2   am
    15     2     3    2
    16     2     5    1
    17     5     6   ar
    18     6     7   ar
    19     7     8   ar
    20     8    11    1
    21    11    12   ar
    22    12    13   ar
    23    13    14   ar
    24    14    15   ar
    25    15    23    1
    26    23    24    3
    27    15    16   ar
    28    16    17   ar
    29    17    20    1
    30    20    21    1
    31    20    22    1
    32    17    18   ar
    33    18    19   ar
    34     8     9   ar
    35     9    10   ar
    36    28    29    1
    37    29    30    1
    38    30    31    2
    39    35    36   ar
    40    36    37   ar
    41    42    43   ar
    42    43    39   ar
    43    37    32   ar
    44    30    26   am
    45    10     5   ar
    46    19    11   ar
    47    18    13   ar
    48     1     4    1
@<TRIPOS>MOLECULE
*****
 43 48 0 0 0
SMALL
GASTEIGER

@<TRIPOS>ATOM
      1 N         139.1496  141.7911  156.9746 N.am    1  UNL1       -0.2975
      2 C         139.2832  140.5739  157.8408 C.2     1  UNL1        0.2459
      3 O         139.0152  139.2133  157.2690 O.2     1  UNL1       -0.2701
      4 H         139.3254  142.6841  157.3499 H       1  UNL1        0.1499
      5 C         139.6848  140.7173  159.2789 C.ar    1  UNL1        0.0534
      6 C         138.7187  141.2884  160.2741 C.ar    1  UNL1        0.0047
      7 C         139.1202  141.4319  161.7122 C.ar    1  UNL1        0.0048
      8 C         140.4879  141.0041  162.1552 C.ar    1  UNL1        0.0536
      9 C         141.4541  140.4330  161.1601 C.ar    1  UNL1        0.0048
     10 C         141.0526  140.2895  159.7219 C.ar    1  UNL1        0.0047
     11 C         140.8895  141.1475  163.5933 C.ar    1  UNL1        0.2296
     12 N         142.1245  141.8319  164.0998 N.ar    1  UNL1       -0.2082
     13 C         142.1248  141.7390  165.5969 C.ar    1  UNL1        0.1192
     14 C         143.0900  142.2341  166.6330 C.ar    1  UNL1        0.0326
     15 C         142.8204  141.9874  168.0878 C.ar    1  UNL1        0.0698
     16 C         141.5857  141.2457  168.5066 C.ar    1  UNL1        0.0091
     17 C         140.6206  140.7507  167.4705 C.ar    1  UNL1        0.0143
     18 C         140.8901  140.9973  166.0157 C.ar    1  UNL1        0.1607
     19 O         140.1267  140.6317  164.7774 O.2     1  UNL1       -0.4349
     20 C         139.3859  140.0089  167.8893 C.3     1  UNL1        0.0254
     21 C         138.9082  140.0889  169.3089 C.3     1  UNL1        0.0048
     22 C         138.6288  139.1872  166.8883 C.3     1  UNL1        0.0048
     23 C         143.7856  142.4824  169.1240 C.1     1  UNL1        0.1005
     24 N         144.7507  142.9775  170.1600 N.1     1  UNL1       -0.1908
     25 C         138.7480  141.6477  155.5365 C.3     1  UNL1        0.1355
     26 N         134.9723  140.7755  155.3157 N.am    1  UNL1       -0.2059
     27 C         136.2619  140.8292  156.0797 C.3     1  UNL1        0.1483
     28 C         137.3102  141.4125  155.1791 C.3     1  UNL1        0.2101
     29 O         136.6683  141.7192  153.8586 O.3     1  UNL1       -0.4345
     30 C         135.2233  141.3255  153.9430 C.2     1  UNL1        0.4098
     31 O         134.2078  141.4585  152.8471 O.2     1  UNL1       -0.2258
     32 C         131.0399  139.2346  156.8691 C.ar    1  UNL1        0.0253
     33 C         131.1192  140.5986  156.2500 C.ar    1  UNL1        0.0049
     34 C         132.4299  141.1122  155.7322 C.ar    1  UNL1        0.0348
     35 C         133.6615  140.2618  155.8335 C.ar    1  UNL1        0.1400
     36 N         133.5823  138.8978  156.4525 N.ar    1  UNL1       -0.2287
     37 C         132.2714  138.3842  156.9703 C.ar    1  UNL1        0.1008
     38 C         127.4244  136.8006  159.8497 C.3     1  UNL1        0.0382
     39 C         128.0673  137.6022  158.7569 C.ar    1  UNL1        0.0076
     40 C         127.3570  138.2589  157.6105 C.ar    1  UNL1        0.0027
     41 C         128.3842  138.9504  156.7637 C.ar    1  UNL1        0.0067
     42 C         129.7292  138.7210  157.3869 C.ar    1  UNL1        0.0306
     43 S         129.5333  137.8877  158.6187 S.2     1  UNL1       -0.0912
@<TRIPOS>BOND
     1    38    39    1
     2    39    40   ar
     3    40    41   ar
     4    41    42   ar
     5    42    32    1
     6    32    33   ar
     7    33    34   ar
     8    34    35   ar
     9    35    26    1
    10    26    27    1
    11    27    28    1
    12    28    25    1
    13    25     1    1
    14     1     2   am
    15     2     3    2
    16     2     5    1
    17     5     6   ar
    18     6     7   ar
    19     7     8   ar
    20     8    11    1
    21    11    12   ar
    22    12    13   ar
    23    13    14   ar
    24    14    15   ar
    25    15    23    1
    26    23    24    3
    27    15    16   ar
    28    16    17   ar
    29    17    20    1
    30    20    21    1
    31    20    22    1
    32    17    18   ar
    33    18    19   ar
    34     8     9   ar
    35     9    10   ar
    36    28    29    1
    37    29    30    1
    38    30    31    2
    39    35    36   ar
    40    36    37   ar
    41    42    43   ar
    42    43    39   ar
    43    37    32   ar
    44    30    26   am
    45    10     5   ar
    46    19    11   ar
    47    18    13   ar
    48     1     4    1
@<TRIPOS>MOLECULE
*****
 43 48 0 0 0
SMALL
GASTEIGER

@<TRIPOS>ATOM
      1 N         139.5818  139.7649  157.5703 N.am    1  UNL1       -0.2975
      2 C         140.9928  139.4290  157.1879 C.2     1  UNL1        0.2459
      3 O         142.0270  140.5127  157.1099 O.2     1  UNL1       -0.2701
      4 H         138.9031  139.0536  157.6215 H       1  UNL1        0.1499
      5 C         141.3696  138.0094  156.8835 C.ar    1  UNL1        0.0534
      6 C         142.5905  137.4061  157.5123 C.ar    1  UNL1        0.0047
      7 C         142.9674  135.9865  157.2080 C.ar    1  UNL1        0.0048
      8 C         142.1233  135.1701  156.2747 C.ar    1  UNL1        0.0536
      9 C         140.9024  135.7733  155.6459 C.ar    1  UNL1        0.0048
     10 C         140.5255  137.1930  155.9502 C.ar    1  UNL1        0.0047
     11 C         142.5001  133.7504  155.9703 C.ar    1  UNL1        0.2296
     12 N         143.8749  133.1604  156.0791 N.ar    1  UNL1       -0.2082
     13 C         143.7926  131.7169  155.6797 C.ar    1  UNL1        0.1192
     14 C         144.8317  130.6385  155.5939 C.ar    1  UNL1        0.0326
     15 C         144.4452  129.2580  155.1524 C.ar    1  UNL1        0.0698
     16 C         143.0197  128.9559  154.7968 C.ar    1  UNL1        0.0091
     17 C         141.9806  130.0343  154.8826 C.ar    1  UNL1        0.0143
     18 C         142.3671  131.4148  155.3241 C.ar    1  UNL1        0.1607
     19 O         141.5682  132.6716  155.5037 O.2     1  UNL1       -0.4349
     20 C         140.5550  129.7322  154.5270 C.3     1  UNL1        0.0254
     21 C         139.8834  130.4845  153.4165 C.3     1  UNL1        0.0048
     22 C         139.8010  128.6777  155.2818 C.3     1  UNL1        0.0048
     23 C         145.4843  128.1796  155.0666 C.1     1  UNL1        0.1005
     24 N         146.5234  127.1012  154.9808 N.1     1  UNL1       -0.1908
     25 C         139.2050  141.1845  157.8747 C.3     1  UNL1        0.1355
     26 N         139.1908  141.7152  161.7197 N.am    1  UNL1       -0.2059
     27 C         139.5803  140.9212  160.5082 C.3     1  UNL1        0.1483
     28 C         139.0469  141.6297  159.2985 C.3     1  UNL1        0.2101
     29 O         138.3277  142.8616  159.7623 O.3     1  UNL1       -0.4345
     30 C         138.4166  142.9144  161.2588 C.2     1  UNL1        0.4098
     31 O         137.8337  143.9795  162.1396 O.2     1  UNL1       -0.2258
     32 C         140.1722  140.6811  165.9879 C.ar    1  UNL1        0.0253
     33 C         138.7409  140.7757  165.5492 C.ar    1  UNL1        0.0049
     34 C         138.4137  141.1204  164.1265 C.ar    1  UNL1        0.0348
     35 C         139.5179  141.3705  163.1424 C.ar    1  UNL1        0.1400
     36 N         140.9492  141.2759  163.5811 N.ar    1  UNL1       -0.2287
     37 C         141.2763  140.9311  165.0039 C.ar    1  UNL1        0.1008
     38 C         142.8525  139.4582  170.3698 C.3     1  UNL1        0.0382
     39 C         141.7313  139.7743  169.4247 C.ar    1  UNL1        0.0076
     40 C         140.2742  139.8375  169.7752 C.ar    1  UNL1        0.0027
     41 C         139.5128  140.1849  168.5303 C.ar    1  UNL1        0.0067
     42 C         140.4993  140.3363  167.4106 C.ar    1  UNL1        0.0306
     43 S         141.8705  140.0825  167.9634 S.2     1  UNL1       -0.0912
@<TRIPOS>BOND
     1    38    39    1
     2    39    40   ar
     3    40    41   ar
     4    41    42   ar
     5    42    32    1
     6    32    33   ar
     7    33    34   ar
     8    34    35   ar
     9    35    26    1
    10    26    27    1
    11    27    28    1
    12    28    25    1
    13    25     1    1
    14     1     2   am
    15     2     3    2
    16     2     5    1
    17     5     6   ar
    18     6     7   ar
    19     7     8   ar
    20     8    11    1
    21    11    12   ar
    22    12    13   ar
    23    13    14   ar
    24    14    15   ar
    25    15    23    1
    26    23    24    3
    27    15    16   ar
    28    16    17   ar
    29    17    20    1
    30    20    21    1
    31    20    22    1
    32    17    18   ar
    33    18    19   ar
    34     8     9   ar
    35     9    10   ar
    36    28    29    1
    37    29    30    1
    38    30    31    2
    39    35    36   ar
    40    36    37   ar
    41    42    43   ar
    42    43    39   ar
    43    37    32   ar
    44    30    26   am
    45    10     5   ar
    46    19    11   ar
    47    18    13   ar
    48     1     4    1
@<TRIPOS>MOLECULE
*****
 43 48 0 0 0
SMALL
GASTEIGER

@<TRIPOS>ATOM
      1 N         138.4116  141.9200  157.1108 N.am    1  UNL1       -0.2975
      2 C         138.6719  140.5752  157.7221 C.2     1  UNL1        0.2459
      3 O         138.5449  139.3349  156.8882 O.2     1  UNL1       -0.2701
      4 H         138.4950  142.7340  157.6582 H       1  UNL1        0.1499
      5 C         139.0594  140.4708  159.1675 C.ar    1  UNL1        0.0534
      6 C         138.1889  139.7114  160.1243 C.ar    1  UNL1        0.0047
      7 C         138.5763  139.6069  161.5697 C.ar    1  UNL1        0.0048
      8 C         139.8343  140.2619  162.0582 C.ar    1  UNL1        0.0536
      9 C         140.7047  141.0213  161.1013 C.ar    1  UNL1        0.0048
     10 C         140.3173  141.1258  159.6559 C.ar    1  UNL1        0.0047
     11 C         140.2217  140.1575  163.5035 C.ar    1  UNL1        0.2296
     12 N         139.4006  140.6166  164.6718 N.ar    1  UNL1       -0.2082
     13 C         140.1698  140.3184  165.9246 C.ar    1  UNL1        0.1192
     14 C         139.8571  140.5497  167.3733 C.ar    1  UNL1        0.0326
     15 C         140.8410  140.1375  168.4280 C.ar    1  UNL1        0.0698
     16 C         142.1374  139.4942  168.0339 C.ar    1  UNL1        0.0091
     17 C         142.4500  139.2630  166.5852 C.ar    1  UNL1        0.0143
     18 C         141.4663  139.6751  165.5306 C.ar    1  UNL1        0.1607
     19 O         141.4984  139.5756  164.0342 O.2     1  UNL1       -0.4349
     20 C         143.7465  138.6197  166.1912 C.3     1  UNL1        0.0254
     21 C         144.5051  139.1284  165.0013 C.3     1  UNL1        0.0048
     22 C         144.2845  137.4675  166.9871 C.3     1  UNL1        0.0048
     23 C         140.5283  140.3688  169.8768 C.1     1  UNL1        0.1005
     24 N         140.2156  140.6000  171.3255 N.1     1  UNL1       -0.1908
     25 C         138.0241  142.0244  155.6655 C.3     1  UNL1        0.1355
     26 N         134.3030  140.9919  155.2742 N.am    1  UNL1       -0.2059
     27 C         135.5528  141.1012  156.0964 C.3     1  UNL1        0.1483
     28 C         136.6156  141.7278  155.2433 C.3     1  UNL1        0.2101
     29 O         136.0226  142.0058  153.8938 O.3     1  UNL1       -0.4345
     30 C         134.5933  141.5510  153.9129 C.2     1  UNL1        0.4098
     31 O         133.6245  141.6396  152.7713 O.2     1  UNL1       -0.2258
     32 C         130.3726  139.2862  156.6500 C.ar    1  UNL1        0.0253
     33 C         130.4313  140.6750  156.0862 C.ar    1  UNL1        0.0049
     34 C         131.7414  141.2436  155.6276 C.ar    1  UNL1        0.0348
     35 C         132.9929  140.4233  155.7328 C.ar    1  UNL1        0.1400
     36 N         132.9343  139.0346  156.2966 N.ar    1  UNL1       -0.2287
     37 C         131.6241  138.4660  156.7552 C.ar    1  UNL1        0.1008
     38 C         126.6944  135.9291  158.4052 C.3     1  UNL1        0.0382
     39 C         127.3718  137.1746  157.9153 C.ar    1  UNL1        0.0076
     40 C         126.7210  138.5109  157.7133 C.ar    1  UNL1        0.0027
     41 C         127.7661  139.4646  157.2146 C.ar    1  UNL1        0.0067
     42 C         129.0625  138.7177  157.1086 C.ar    1  UNL1        0.0306
     43 S         128.8188  137.3023  157.5417 S.2     1  UNL1       -0.0912
@<TRIPOS>BOND
     1    38    39    1
     2    39    40   ar
     3    40    41   ar
     4    41    42   ar
     5    42    32    1
     6    32    33   ar
     7    33    34   ar
     8    34    35   ar
     9    35    26    1
    10    26    27    1
    11    27    28    1
    12    28    25    1
    13    25     1    1
    14     1     2   am
    15     2     3    2
    16     2     5    1
    17     5     6   ar
    18     6     7   ar
    19     7     8   ar
    20     8    11    1
    21    11    12   ar
    22    12    13   ar
    23    13    14   ar
    24    14    15   ar
    25    15    23    1
    26    23    24    3
    27    15    16   ar
    28    16    17   ar
    29    17    20    1
    30    20    21    1
    31    20    22    1
    32    17    18   ar
    33    18    19   ar
    34     8     9   ar
    35     9    10   ar
    36    28    29    1
    37    29    30    1
    38    30    31    2
    39    35    36   ar
    40    36    37   ar
    41    42    43   ar
    42    43    39   ar
    43    37    32   ar
    44    30    26   am
    45    10     5   ar
    46    19    11   ar
    47    18    13   ar
    48     1     4    1
@<TRIPOS>MOLECULE
*****
 43 48 0 0 0
SMALL
GASTEIGER

@<TRIPOS>ATOM
      1 N         140.0356  143.6541  156.9818 N.am    1  UNL1       -0.2975
      2 C         140.0401  144.6356  158.1160 C.2     1  UNL1        0.2459
      3 O         140.0425  146.1087  157.8331 O.2     1  UNL1       -0.2701
      4 H         140.0340  142.6873  157.1675 H       1  UNL1        0.1499
      5 C         140.0422  144.1441  159.5332 C.ar    1  UNL1        0.0534
      6 C         140.4259  145.0713  160.6480 C.ar    1  UNL1        0.0047
      7 C         140.4281  144.5798  162.0653 C.ar    1  UNL1        0.0048
      8 C         140.0465  143.1610  162.3676 C.ar    1  UNL1        0.0536
      9 C         139.6627  142.2338  161.2527 C.ar    1  UNL1        0.0048
     10 C         139.6606  142.7253  159.8354 C.ar    1  UNL1        0.0047
     11 C         140.0486  142.6694  163.7847 C.ar    1  UNL1        0.2296
     12 N         140.5637  143.4194  164.9773 N.ar    1  UNL1       -0.2082
     13 C         140.3694  142.5550  166.1877 C.ar    1  UNL1        0.1192
     14 C         140.6888  142.7714  167.6372 C.ar    1  UNL1        0.0326
     15 C         140.3730  141.7035  168.6423 C.ar    1  UNL1        0.0698
     16 C         139.7379  140.4194  168.1978 C.ar    1  UNL1        0.0091
     17 C         139.4185  140.2031  166.7483 C.ar    1  UNL1        0.0143
     18 C         139.7342  141.2708  165.7432 C.ar    1  UNL1        0.1607
     19 O         139.5360  141.3416  164.2581 O.2     1  UNL1       -0.4349
     20 C         138.7834  138.9189  166.3038 C.3     1  UNL1        0.0254
     21 C         139.3660  138.1529  165.1532 C.3     1  UNL1        0.0048
     22 C         137.5655  138.4007  167.0099 C.3     1  UNL1        0.0048
     23 C         140.6924  141.9198  170.0919 C.1     1  UNL1        0.1005
     24 N         141.0118  142.1362  171.5414 N.1     1  UNL1       -0.1908
     25 C         140.0334  144.1457  155.5646 C.3     1  UNL1        0.1355
     26 N         143.6602  144.3578  154.1981 N.am    1  UNL1       -0.2059
     27 C         142.6335  143.7365  155.0980 C.3     1  UNL1        0.1483
     28 C         141.3303  144.4442  154.8724 C.3     1  UNL1        0.2101
     29 O         141.5516  145.5028  153.8330 O.3     1  UNL1       -0.4345
     30 C         142.9916  145.4494  153.4163 C.2     1  UNL1        0.4098
     31 O         143.6478  146.3326  152.3967 O.2     1  UNL1       -0.2258
     32 C         147.9867  143.1574  153.8968 C.ar    1  UNL1        0.0253
     33 C         147.4898  144.3640  153.1569 C.ar    1  UNL1        0.0049
     34 C         146.0477  144.7641  153.2573 C.ar    1  UNL1        0.0348
     35 C         145.1023  143.9577  154.0977 C.ar    1  UNL1        0.1400
     36 N         145.5992  142.7511  154.8376 N.ar    1  UNL1       -0.2287
     37 C         147.0414  142.3510  154.7371 C.ar    1  UNL1        0.1008
     38 C         153.0934  143.0739  152.5569 C.3     1  UNL1        0.0382
     39 C         151.7761  142.7189  153.1805 C.ar    1  UNL1        0.0076
     40 C         151.5200  141.5642  154.1030 C.ar    1  UNL1        0.0027
     41 C         150.0693  141.5880  154.4836 C.ar    1  UNL1        0.0067
     42 C         149.4288  142.7573  153.7963 C.ar    1  UNL1        0.0306
     43 S         150.4838  143.4563  152.9908 S.2     1  UNL1       -0.0912
@<TRIPOS>BOND
     1    38    39    1
     2    39    40   ar
     3    40    41   ar
     4    41    42   ar
     5    42    32    1
     6    32    33   ar
     7    33    34   ar
     8    34    35   ar
     9    35    26    1
    10    26    27    1
    11    27    28    1
    12    28    25    1
    13    25     1    1
    14     1     2   am
    15     2     3    2
    16     2     5    1
    17     5     6   ar
    18     6     7   ar
    19     7     8   ar
    20     8    11    1
    21    11    12   ar
    22    12    13   ar
    23    13    14   ar
    24    14    15   ar
    25    15    23    1
    26    23    24    3
    27    15    16   ar
    28    16    17   ar
    29    17    20    1
    30    20    21    1
    31    20    22    1
    32    17    18   ar
    33    18    19   ar
    34     8     9   ar
    35     9    10   ar
    36    28    29    1
    37    29    30    1
    38    30    31    2
    39    35    36   ar
    40    36    37   ar
    41    42    43   ar
    42    43    39   ar
    43    37    32   ar
    44    30    26   am
    45    10     5   ar
    46    19    11   ar
    47    18    13   ar
    48     1     4    1
@<TRIPOS>MOLECULE
*****
 43 48 0 0 0
SMALL
GASTEIGER

@<TRIPOS>ATOM
      1 N         141.2128  137.6915  156.5387 N.am    1  UNL1       -0.2975
      2 C         142.4057  138.2197  157.2789 C.2     1  UNL1        0.2459
      3 O         143.7674  138.1506  156.6537 O.2     1  UNL1       -0.2701
      4 H         140.3191  137.7368  156.9491 H       1  UNL1        0.1499
      5 C         142.2368  138.8171  158.6444 C.ar    1  UNL1        0.0534
      6 C         141.0171  138.4979  159.4571 C.ar    1  UNL1        0.0047
      7 C         140.8482  139.0953  160.8226 C.ar    1  UNL1        0.0048
      8 C         141.8990  140.0118  161.3755 C.ar    1  UNL1        0.0536
      9 C         143.1187  140.3310  160.5629 C.ar    1  UNL1        0.0048
     10 C         143.2877  139.7336  159.1973 C.ar    1  UNL1        0.0047
     11 C         141.7301  140.6092  162.7410 C.ar    1  UNL1        0.2296
     12 N         142.6291  140.3820  163.9201 N.ar    1  UNL1       -0.2082
     13 C         142.0871  141.1711  165.0749 C.ar    1  UNL1        0.1192
     14 C         142.5578  141.3310  166.4902 C.ar    1  UNL1        0.0326
     15 C         141.7946  142.2058  167.4400 C.ar    1  UNL1        0.0698
     16 C         140.5608  142.9206  166.9747 C.ar    1  UNL1        0.0091
     17 C         140.0901  142.7607  165.5595 C.ar    1  UNL1        0.0143
     18 C         140.8533  141.8859  164.6096 C.ar    1  UNL1        0.1607
     19 O         140.6326  141.5386  163.1671 O.2     1  UNL1       -0.4349
     20 C         138.8562  143.4755  165.0942 C.3     1  UNL1        0.0254
     21 C         137.8401  142.7527  164.2605 C.3     1  UNL1        0.0048
     22 C         138.6384  144.9133  165.4625 C.3     1  UNL1        0.0048
     23 C         142.2653  142.3657  168.8554 C.1     1  UNL1        0.1005
     24 N         142.7359  142.5257  170.2706 N.1     1  UNL1       -0.1908
     25 C         141.3817  137.0941  155.1732 C.3     1  UNL1        0.1355
     26 N         142.6459  133.4431  155.5439 N.am    1  UNL1       -0.2059
     27 C         142.2866  134.7719  156.1397 C.3     1  UNL1        0.1483
     28 C         141.8343  135.6713  155.0277 C.3     1  UNL1        0.2101
     29 O         141.9142  134.8983  153.7447 O.3     1  UNL1       -0.4345
     30 C         142.4158  133.5211  154.0638 C.2     1  UNL1        0.4098
     31 O         142.6467  132.4161  153.0761 O.2     1  UNL1       -0.2258
     32 C         144.1503  129.8524  157.8009 C.ar    1  UNL1        0.0253
     33 C         144.7960  131.1909  158.0047 C.ar    1  UNL1        0.0049
     34 C         144.2945  132.3878  157.2523 C.ar    1  UNL1        0.0348
     35 C         143.1473  132.2462  156.2962 C.ar    1  UNL1        0.1400
     36 N         142.5017  130.9077  156.0925 N.ar    1  UNL1       -0.2287
     37 C         143.0032  129.7107  156.8449 C.ar    1  UNL1        0.1008
     38 C         145.0856  126.3823  161.6693 C.3     1  UNL1        0.0382
     39 C         145.0816  127.0605  160.3313 C.ar    1  UNL1        0.0076
     40 C         145.7651  126.5669  159.0906 C.ar    1  UNL1        0.0027
     41 C         145.4993  127.5527  157.9917 C.ar    1  UNL1        0.0067
     42 C         144.6517  128.6555  158.5533 C.ar    1  UNL1        0.0306
     43 S         144.3936  128.3513  159.9993 S.2     1  UNL1       -0.0912
@<TRIPOS>BOND
     1    38    39    1
     2    39    40   ar
     3    40    41   ar
     4    41    42   ar
     5    42    32    1
     6    32    33   ar
     7    33    34   ar
     8    34    35   ar
     9    35    26    1
    10    26    27    1
    11    27    28    1
    12    28    25    1
    13    25     1    1
    14     1     2   am
    15     2     3    2
    16     2     5    1
    17     5     6   ar
    18     6     7   ar
    19     7     8   ar
    20     8    11    1
    21    11    12   ar
    22    12    13   ar
    23    13    14   ar
    24    14    15   ar
    25    15    23    1
    26    23    24    3
    27    15    16   ar
    28    16    17   ar
    29    17    20    1
    30    20    21    1
    31    20    22    1
    32    17    18   ar
    33    18    19   ar
    34     8     9   ar
    35     9    10   ar
    36    28    29    1
    37    29    30    1
    38    30    31    2
    39    35    36   ar
    40    36    37   ar
    41    42    43   ar
    42    43    39   ar
    43    37    32   ar
    44    30    26   am
    45    10     5   ar
    46    19    11   ar
    47    18    13   ar
    48     1     4    1
@<TRIPOS>MOLECULE
*****
 43 48 0 0 0
SMALL
GASTEIGER

@<TRIPOS>ATOM
      1 N         142.4725  142.7181  157.3218 N.am    1  UNL1       -0.2975
      2 C         142.3728  143.7708  158.3856 C.2     1  UNL1        0.2459
      3 O         142.6104  145.2110  158.0402 O.2     1  UNL1       -0.2701
      4 H         142.3165  141.7728  157.5485 H       1  UNL1        0.1499
      5 C         142.0355  143.3833  159.7949 C.ar    1  UNL1        0.0534
      6 C         141.9005  141.9353  160.1627 C.ar    1  UNL1        0.0047
      7 C         141.5632  141.5477  161.5720 C.ar    1  UNL1        0.0048
      8 C         141.3609  142.6081  162.6134 C.ar    1  UNL1        0.0536
      9 C         141.4959  144.0560  162.2456 C.ar    1  UNL1        0.0048
     10 C         141.8332  144.4436  160.8363 C.ar    1  UNL1        0.0047
     11 C         141.0236  142.2205  164.0227 C.ar    1  UNL1        0.2296
     12 N         141.4448  142.9515  165.2630 N.ar    1  UNL1       -0.2082
     13 C         140.8874  142.2167  166.4459 C.ar    1  UNL1        0.1192
     14 C         140.9781  142.4736  167.9209 C.ar    1  UNL1        0.0326
     15 C         140.3031  141.5454  168.8868 C.ar    1  UNL1        0.0698
     16 C         139.5375  140.3603  168.3776 C.ar    1  UNL1        0.0091
     17 C         139.4468  140.1034  166.9026 C.ar    1  UNL1        0.0143
     18 C         140.1217  141.0316  165.9367 C.ar    1  UNL1        0.1607
     19 O         140.2059  141.0339  164.4391 O.2     1  UNL1       -0.4349
     20 C         138.6811  138.9182  166.3935 C.3     1  UNL1        0.0254
     21 C         137.5105  138.3918  167.1696 C.3     1  UNL1        0.0048
     22 C         139.0861  138.2595  165.1080 C.3     1  UNL1        0.0048
     23 C         140.3938  141.8023  170.3619 C.1     1  UNL1        0.1005
     24 N         140.4846  142.0592  171.8369 N.1     1  UNL1       -0.1908
     25 C         142.8098  143.1056  155.9125 C.3     1  UNL1        0.1355
     26 N         146.2123  141.9145  154.4740 N.am    1  UNL1       -0.2059
     27 C         145.4088  142.8254  155.3540 C.3     1  UNL1        0.1483
     28 C         143.9631  142.4520  155.2105 C.3     1  UNL1        0.2101
     29 O         143.8732  141.3103  154.2418 O.3     1  UNL1       -0.4345
     30 C         145.2634  140.9781  153.7866 C.2     1  UNL1        0.4098
     31 O         145.6386  139.8990  152.8147 O.2     1  UNL1       -0.2258
     32 C         150.6850  141.9795  153.9825 C.ar    1  UNL1        0.0253
     33 C         150.0822  141.6919  155.3256 C.ar    1  UNL1        0.0049
     34 C         148.5913  141.6703  155.4895 C.ar    1  UNL1        0.0348
     35 C         147.7032  141.9361  154.3102 C.ar    1  UNL1        0.1400
     36 N         148.3060  142.2237  152.9670 N.ar    1  UNL1       -0.2287
     37 C         149.7970  142.2453  152.8032 C.ar    1  UNL1        0.1008
     38 C         155.6263  140.5568  152.7823 C.3     1  UNL1        0.0382
     39 C         154.4471  141.3472  153.2670 C.ar    1  UNL1        0.0076
     40 C         154.4930  142.7217  153.8661 C.ar    1  UNL1        0.0027
     41 C         153.0892  143.1258  154.2070 C.ar    1  UNL1        0.0067
     42 C         152.1758  142.0011  153.8187 C.ar    1  UNL1        0.0306
     43 S         153.0151  140.9019  153.2377 S.2     1  UNL1       -0.0912
@<TRIPOS>BOND
     1    38    39    1
     2    39    40   ar
     3    40    41   ar
     4    41    42   ar
     5    42    32    1
     6    32    33   ar
     7    33    34   ar
     8    34    35   ar
     9    35    26    1
    10    26    27    1
    11    27    28    1
    12    28    25    1
    13    25     1    1
    14     1     2   am
    15     2     3    2
    16     2     5    1
    17     5     6   ar
    18     6     7   ar
    19     7     8   ar
    20     8    11    1
    21    11    12   ar
    22    12    13   ar
    23    13    14   ar
    24    14    15   ar
    25    15    23    1
    26    23    24    3
    27    15    16   ar
    28    16    17   ar
    29    17    20    1
    30    20    21    1
    31    20    22    1
    32    17    18   ar
    33    18    19   ar
    34     8     9   ar
    35     9    10   ar
    36    28    29    1
    37    29    30    1
    38    30    31    2
    39    35    36   ar
    40    36    37   ar
    41    42    43   ar
    42    43    39   ar
    43    37    32   ar
    44    30    26   am
    45    10     5   ar
    46    19    11   ar
    47    18    13   ar
    48     1     4    1
@<TRIPOS>MOLECULE
*****
 43 48 0 0 0
SMALL
GASTEIGER

@<TRIPOS>ATOM
      1 N         144.2889  139.9148  157.7596 N.am    1  UNL1       -0.2975
      2 C         143.4242  139.5413  156.5922 C.2     1  UNL1        0.2459
      3 O         142.8625  140.6103  155.7025 O.2     1  UNL1       -0.2701
      4 H         144.6575  139.2132  158.3435 H       1  UNL1        0.1499
      5 C         143.1212  138.0987  156.3147 C.ar    1  UNL1        0.0534
      6 C         141.7612  137.5454  156.6217 C.ar    1  UNL1        0.0047
      7 C         141.4581  136.1028  156.3442 C.ar    1  UNL1        0.0048
      8 C         142.5151  135.2134  155.7596 C.ar    1  UNL1        0.0536
      9 C         143.8751  135.7667  155.4525 C.ar    1  UNL1        0.0048
     10 C         144.1782  137.2093  155.7301 C.ar    1  UNL1        0.0047
     11 C         142.2121  133.7708  155.4820 C.ar    1  UNL1        0.2296
     12 N         141.0624  133.2517  154.6703 N.ar    1  UNL1       -0.2082
     13 C         141.1454  131.7541  154.6541 C.ar    1  UNL1        0.1192
     14 C         140.2826  130.7080  154.0129 C.ar    1  UNL1        0.0326
     15 C         140.6207  129.2554  154.1734 C.ar    1  UNL1        0.0698
     16 C         141.8215  128.8490  154.9750 C.ar    1  UNL1        0.0091
     17 C         142.6844  129.8951  155.6162 C.ar    1  UNL1        0.0143
     18 C         142.3463  131.3476  155.4557 C.ar    1  UNL1        0.1607
     19 O         143.0056  132.5940  155.9674 O.2     1  UNL1       -0.4349
     20 C         143.8853  129.4886  156.4178 C.3     1  UNL1        0.0254
     21 C         143.9707  129.8428  157.8729 C.3     1  UNL1        0.0048
     22 C         145.0008  128.7278  155.7644 C.3     1  UNL1        0.0048
     23 C         139.7578  128.2092  153.5321 C.1     1  UNL1        0.1005
     24 N         138.8949  127.1631  152.8909 N.1     1  UNL1       -0.1908
     25 C         144.5919  141.3575  158.0371 C.3     1  UNL1        0.1355
     26 N         143.4100  142.4177  161.5790 N.am    1  UNL1       -0.2059
     27 C         144.0409  141.4214  160.6520 C.3     1  UNL1        0.1483
     28 C         144.0517  142.0129  159.2736 C.3     1  UNL1        0.2101
     29 O         143.4276  143.3748  159.3487 O.3     1  UNL1       -0.4345
     30 C         143.0310  143.6250  160.7735 C.2     1  UNL1        0.4098
     31 O         142.3713  144.8648  161.3004 O.2     1  UNL1       -0.2258
     32 C         142.7674  141.8795  166.0002 C.ar    1  UNL1        0.0253
     33 C         143.8852  142.7487  165.5052 C.ar    1  UNL1        0.0049
     34 C         144.0994  142.9281  164.0314 C.ar    1  UNL1        0.0348
     35 C         143.1958  142.2383  163.0527 C.ar    1  UNL1        0.1400
     36 N         142.0780  141.3691  163.5478 N.ar    1  UNL1       -0.2287
     37 C         141.8638  141.1897  165.0216 C.ar    1  UNL1        0.1008
     38 C         140.7922  140.2851  170.6302 C.3     1  UNL1        0.0382
     39 C         141.6453  140.9672  169.6021 C.ar    1  UNL1        0.0076
     40 C         142.8019  141.8807  169.8815 C.ar    1  UNL1        0.0027
     41 C         143.3630  142.3336  168.5661 C.ar    1  UNL1        0.0067
     42 C         142.5532  141.7001  167.4740 C.ar    1  UNL1        0.0306
     43 S         141.4916  140.8556  168.1143 S.2     1  UNL1       -0.0912
@<TRIPOS>BOND
     1    38    39    1
     2    39    40   ar
     3    40    41   ar
     4    41    42   ar
     5    42    32    1
     6    32    33   ar
     7    33    34   ar
     8    34    35   ar
     9    35    26    1
    10    26    27    1
    11    27    28    1
    12    28    25    1
    13    25     1    1
    14     1     2   am
    15     2     3    2
    16     2     5    1
    17     5     6   ar
    18     6     7   ar
    19     7     8   ar
    20     8    11    1
    21    11    12   ar
    22    12    13   ar
    23    13    14   ar
    24    14    15   ar
    25    15    23    1
    26    23    24    3
    27    15    16   ar
    28    16    17   ar
    29    17    20    1
    30    20    21    1
    31    20    22    1
    32    17    18   ar
    33    18    19   ar
    34     8     9   ar
    35     9    10   ar
    36    28    29    1
    37    29    30    1
    38    30    31    2
    39    35    36   ar
    40    36    37   ar
    41    42    43   ar
    42    43    39   ar
    43    37    32   ar
    44    30    26   am
    45    10     5   ar
    46    19    11   ar
    47    18    13   ar
    48     1     4    1
