@<TRIPOS>MOLECULE
*****
 40 45 0 0 0
SMALL
GASTEIGER

@<TRIPOS>ATOM
      1 C         140.6121  137.7131  164.3327 C.3     1  UNL1        0.0932
      2 C         141.8148  138.2135  165.0765 C.3     1  UNL1        0.0286
      3 C         143.0653  138.5686  164.3282 C.3     1  UNL1        0.0193
      4 C         143.1132  138.4233  162.8360 C.3     1  UNL1        0.0700
      5 C         141.9106  137.9229  162.0921 C.3     1  UNL1        0.0193
      6 C         140.6600  137.5678  162.8406 C.3     1  UNL1        0.0286
      7 C         142.4057  138.2162  163.2026 C.3     1  UNL1        0.1562
      8 O         141.2749  137.8951  163.8792 O.3     1  UNL1       -0.3572
      9 N         144.3638  138.7783  162.0876 N.3     1  UNL1       -0.2926
     10 H         144.4794  138.0757  161.3573 H       1  UNL1        0.1236
     11 C         144.4855  140.1176  161.4231 C.3     1  UNL1        0.1148
     12 C         143.8941  141.3335  162.0725 C.ar    1  UNL1        0.0723
     13 N         142.6881  141.9930  161.4719 N.ar    1  UNL1       -0.2308
     14 C         142.0967  143.2090  162.1213 C.ar    1  UNL1        0.1679
     15 C         142.7114  143.7655  163.3713 C.ar    1  UNL1        0.1664
     16 C         143.9174  143.1061  163.9719 C.ar    1  UNL1        0.0122
     17 C         144.5320  143.6627  165.2219 C.3     1  UNL1        0.0340
     18 C         144.5087  141.8901  163.3225 C.ar    1  UNL1       -0.0079
     19 C         145.7147  141.2307  163.9231 C.3     1  UNL1        0.0321
     20 O         142.1200  144.9815  164.0207 O.3     1  UNL1       -0.4631
     21 C         140.9140  145.6409  163.4201 C.3     1  UNL1        0.2898
     22 C         140.2994  145.0844  162.1700 C.2     1  UNL1        0.2718
     23 O         139.0934  145.7438  161.5694 O.2     1  UNL1       -0.2707
     24 N         140.8908  143.8684  161.5207 N.am    1  UNL1       -0.2639
     25 H         140.4873  143.5031  160.7003 H       1  UNL1        0.1565
     26 C         139.3616  137.3580  165.0811 C.3     1  UNL1        0.0320
     27 C         138.3620  138.4240  165.4197 C.3     1  UNL1        0.0327
     28 C         140.3566  141.4019  168.1407 C.ar    1  UNL1        0.2250
     29 C         140.5769  142.8113  167.6770 C.ar    1  UNL1        0.0593
     30 C         140.1324  143.2280  166.3063 C.ar    1  UNL1        0.0254
     31 C         139.4675  142.2354  165.3994 C.ar    1  UNL1        0.0990
     32 N         139.0230  142.6522  164.0287 N.ar    1  UNL1       -0.2400
     33 C         138.3581  141.6596  163.1218 C.ar    1  UNL1        0.1281
     34 C         138.1377  140.2501  163.5854 C.ar    1  UNL1        0.1566
     35 F         137.4729  139.2575  162.6785 F       1  UNL1       -0.2028
     36 C         138.5823  139.8333  164.9561 C.ar    1  UNL1        0.0261
     37 C         139.2472  140.8260  165.8631 C.ar    1  UNL1        0.1002
     38 N         139.6918  140.4093  167.2337 N.ar    1  UNL1       -0.2104
     39 C         139.8795  140.1924  170.3900 C.3     1  UNL1        0.2542
     40 O         140.8012  140.9851  169.5113 O.3     1  UNL1       -0.4561
@<TRIPOS>BOND
     1    39    40    1
     2    40    28    1
     3    28    29   ar
     4    29    30   ar
     5    30    31   ar
     6    31    32   ar
     7    32    33   ar
     8    33    34   ar
     9    34    35    1
    10    34    36   ar
    11    36    27    1
    12    27    26    1
    13    26     1    1
    14     1     2    1
    15     2     3    1
    16     3     4    1
    17     4     9    1
    18     9    11    1
    19    11    12    1
    20    12    13   ar
    21    13    14   ar
    22    14    15   ar
    23    15    16   ar
    24    16    17    1
    25    16    18   ar
    26    18    19    1
    27    15    20    1
    28    20    21    1
    29    21    22    1
    30    22    23    2
    31    22    24   am
    32     4     5    1
    33     5     6    1
    34     4     7    1
    35     7     8    1
    36    36    37   ar
    37    37    38   ar
    38    38    28   ar
    39    37    31   ar
    40     6     1    1
    41     8     1    1
    42    18    12   ar
    43    24    14    1
    44     9    10    1
    45    24    25    1
@<TRIPOS>MOLECULE
*****
 40 45 0 0 0
SMALL
GASTEIGER

@<TRIPOS>ATOM
      1 C         144.7522  140.3289  163.3741 C.3     1  UNL1        0.0932
      2 C         144.3808  140.2485  161.9231 C.3     1  UNL1        0.0286
      3 C         143.3485  139.2605  161.4668 C.3     1  UNL1        0.0193
      4 C         142.6875  138.3529  162.4616 C.3     1  UNL1        0.0700
      5 C         143.0589  138.4334  163.9126 C.3     1  UNL1        0.0193
      6 C         144.0913  139.4214  164.3689 C.3     1  UNL1        0.0286
      7 C         143.2475  138.8782  162.7590 C.3     1  UNL1        0.1562
      8 O         144.1809  139.7715  163.1717 O.3     1  UNL1       -0.3572
      9 N         141.6552  137.3650  162.0053 N.3     1  UNL1       -0.2926
     10 H         141.5710  136.6653  162.7427 H       1  UNL1        0.1236
     11 C         140.2643  137.8271  161.6860 C.3     1  UNL1        0.1148
     12 C         139.6441  138.9410  162.4762 C.ar    1  UNL1        0.0723
     13 N         139.5338  140.3128  161.8796 N.ar    1  UNL1       -0.2308
     14 C         138.9136  141.4267  162.6699 C.ar    1  UNL1        0.1679
     15 C         138.4037  141.1688  164.0568 C.ar    1  UNL1        0.1664
     16 C         138.5140  139.7970  164.6534 C.ar    1  UNL1        0.0122
     17 C         138.0041  139.5391  166.0404 C.3     1  UNL1        0.0340
     18 C         139.1342  138.6831  163.8632 C.ar    1  UNL1       -0.0079
     19 C         139.2446  137.3113  164.4598 C.3     1  UNL1        0.0321
     20 O         137.7835  142.2827  164.8471 O.3     1  UNL1       -0.4631
     21 C         137.6731  143.6546  164.2505 C.3     1  UNL1        0.2898
     22 C         138.1831  143.9124  162.8635 C.2     1  UNL1        0.2718
     23 O         138.0727  145.2842  162.2669 O.2     1  UNL1       -0.2707
     24 N         138.8033  142.7985  162.0733 N.am    1  UNL1       -0.2639
     25 H         139.1379  142.9678  161.1630 H       1  UNL1        0.1565
     26 C         145.7845  141.3169  163.8305 C.3     1  UNL1        0.0320
     27 C         145.3611  142.5772  164.5251 C.3     1  UNL1        0.0327
     28 C         142.3700  141.7196  167.7759 C.ar    1  UNL1        0.2250
     29 C         140.9587  142.2104  167.6449 C.ar    1  UNL1        0.0593
     30 C         140.5443  142.9870  166.4304 C.ar    1  UNL1        0.0254
     31 C         141.5413  143.2728  165.3468 C.ar    1  UNL1        0.0990
     32 N         141.1270  144.0494  164.1322 N.ar    1  UNL1       -0.2400
     33 C         142.1240  144.3353  163.0486 C.ar    1  UNL1        0.1281
     34 C         143.5354  143.8445  163.1795 C.ar    1  UNL1        0.1566
     35 F         144.5324  144.1303  162.0959 F       1  UNL1       -0.2028
     36 C         143.9498  143.0679  164.3941 C.ar    1  UNL1        0.0261
     37 C         142.9527  142.7821  165.4778 C.ar    1  UNL1        0.1002
     38 N         143.3670  142.0055  166.6923 N.ar    1  UNL1       -0.2104
     39 C         142.4067  139.4973  169.1212 C.3     1  UNL1        0.2542
     40 O         142.7843  140.9431  168.9905 O.3     1  UNL1       -0.4561
@<TRIPOS>BOND
     1    39    40    1
     2    40    28    1
     3    28    29   ar
     4    29    30   ar
     5    30    31   ar
     6    31    32   ar
     7    32    33   ar
     8    33    34   ar
     9    34    35    1
    10    34    36   ar
    11    36    27    1
    12    27    26    1
    13    26     1    1
    14     1     2    1
    15     2     3    1
    16     3     4    1
    17     4     9    1
    18     9    11    1
    19    11    12    1
    20    12    13   ar
    21    13    14   ar
    22    14    15   ar
    23    15    16   ar
    24    16    17    1
    25    16    18   ar
    26    18    19    1
    27    15    20    1
    28    20    21    1
    29    21    22    1
    30    22    23    2
    31    22    24   am
    32     4     5    1
    33     5     6    1
    34     4     7    1
    35     7     8    1
    36    36    37   ar
    37    37    38   ar
    38    38    28   ar
    39    37    31   ar
    40     6     1    1
    41     8     1    1
    42    18    12   ar
    43    24    14    1
    44     9    10    1
    45    24    25    1
@<TRIPOS>MOLECULE
*****
 40 45 0 0 0
SMALL
GASTEIGER

@<TRIPOS>ATOM
      1 C         141.5938  137.9455  164.3936 C.3     1  UNL1        0.0932
      2 C         142.1089  138.1615  163.0015 C.3     1  UNL1        0.0286
      3 C         143.4359  138.8272  162.7876 C.3     1  UNL1        0.0193
      4 C         144.2479  139.2771  163.9659 C.3     1  UNL1        0.0700
      5 C         143.7329  139.0611  165.3580 C.3     1  UNL1        0.0193
      6 C         142.4058  138.3953  165.5719 C.3     1  UNL1        0.0286
      7 C         143.5266  138.9168  164.1330 C.3     1  UNL1        0.1562
      8 O         142.3267  138.3149  164.3264 O.3     1  UNL1       -0.3572
      9 N         145.5749  139.9428  163.7520 N.3     1  UNL1       -0.2926
     10 H         145.8893  139.6795  162.8180 H       1  UNL1        0.1236
     11 C         145.6882  141.4358  163.8421 C.3     1  UNL1        0.1148
     12 C         144.7292  142.3077  163.0870 C.ar    1  UNL1        0.0723
     13 N         144.5291  142.1027  161.6146 N.ar    1  UNL1       -0.2308
     14 C         143.5701  142.9747  160.8595 C.ar    1  UNL1        0.1679
     15 C         142.8112  144.0514  161.5768 C.ar    1  UNL1        0.1664
     16 C         143.0113  144.2563  163.0492 C.ar    1  UNL1        0.0122
     17 C         142.2523  145.3332  163.7665 C.3     1  UNL1        0.0340
     18 C         143.9702  143.3845  163.8043 C.ar    1  UNL1       -0.0079
     19 C         144.1703  143.5894  165.2767 C.3     1  UNL1        0.0321
     20 O         141.8522  144.9233  160.8217 O.3     1  UNL1       -0.4631
     21 C         141.6521  144.7184  159.3493 C.3     1  UNL1        0.2898
     22 C         142.4111  143.6416  158.6320 C.2     1  UNL1        0.2718
     23 O         142.2110  143.4367  157.1596 O.2     1  UNL1       -0.2707
     24 N         143.3701  142.7697  159.3871 N.am    1  UNL1       -0.2639
     25 H         143.8682  142.0630  158.9163 H       1  UNL1        0.1565
     26 C         140.2668  137.2798  164.6076 C.3     1  UNL1        0.0320
     27 C         139.0588  138.1046  164.9400 C.3     1  UNL1        0.0327
     28 C         140.2250  142.0787  166.6996 C.ar    1  UNL1        0.2250
     29 C         139.9494  143.3440  165.9427 C.ar    1  UNL1        0.0593
     30 C         139.2849  143.2846  164.5991 C.ar    1  UNL1        0.0254
     31 C         138.8962  141.9599  164.0126 C.ar    1  UNL1        0.0990
     32 N         138.2318  141.9005  162.6691 N.ar    1  UNL1       -0.2400
     33 C         137.8430  140.5759  162.0825 C.ar    1  UNL1        0.1281
     34 C         138.1187  139.3105  162.8395 C.ar    1  UNL1        0.1566
     35 F         137.7300  137.9858  162.2529 F       1  UNL1       -0.2028
     36 C         138.7831  139.3699  164.1830 C.ar    1  UNL1        0.0261
     37 C         139.1719  140.6946  164.7695 C.ar    1  UNL1        0.1002
     38 N         139.8363  140.7540  166.1131 N.ar    1  UNL1       -0.2104
     39 C         140.4488  143.1555  169.0534 C.3     1  UNL1        0.2542
     40 O         140.8894  142.1381  168.0431 O.3     1  UNL1       -0.4561
@<TRIPOS>BOND
     1    39    40    1
     2    40    28    1
     3    28    29   ar
     4    29    30   ar
     5    30    31   ar
     6    31    32   ar
     7    32    33   ar
     8    33    34   ar
     9    34    35    1
    10    34    36   ar
    11    36    27    1
    12    27    26    1
    13    26     1    1
    14     1     2    1
    15     2     3    1
    16     3     4    1
    17     4     9    1
    18     9    11    1
    19    11    12    1
    20    12    13   ar
    21    13    14   ar
    22    14    15   ar
    23    15    16   ar
    24    16    17    1
    25    16    18   ar
    26    18    19    1
    27    15    20    1
    28    20    21    1
    29    21    22    1
    30    22    23    2
    31    22    24   am
    32     4     5    1
    33     5     6    1
    34     4     7    1
    35     7     8    1
    36    36    37   ar
    37    37    38   ar
    38    38    28   ar
    39    37    31   ar
    40     6     1    1
    41     8     1    1
    42    18    12   ar
    43    24    14    1
    44     9    10    1
    45    24    25    1
@<TRIPOS>MOLECULE
*****
 40 45 0 0 0
SMALL
GASTEIGER

@<TRIPOS>ATOM
      1 C         143.7159  142.1856  163.5878 C.3     1  UNL1        0.0932
      2 C         142.9880  142.8550  164.7156 C.3     1  UNL1        0.0286
      3 C         142.2123  144.1142  164.4651 C.3     1  UNL1        0.0193
      4 C         142.1645  144.7039  163.0866 C.3     1  UNL1        0.0700
      5 C         142.8924  144.0345  161.9588 C.3     1  UNL1        0.0193
      6 C         143.6681  142.7753  162.2094 C.3     1  UNL1        0.0286
      7 C         142.6027  144.0125  163.1752 C.3     1  UNL1        0.1562
      8 O         143.3041  142.8739  163.4018 O.3     1  UNL1       -0.3572
      9 N         141.3888  145.9631  162.8361 N.3     1  UNL1       -0.2926
     10 H         141.9306  146.5153  162.1713 H       1  UNL1        0.1236
     11 C         139.9904  145.8881  162.2986 C.3     1  UNL1        0.1148
     12 C         139.3271  144.5551  162.1173 C.ar    1  UNL1        0.0723
     13 N         139.3536  143.8801  160.7780 N.ar    1  UNL1       -0.2308
     14 C         138.6902  142.5470  160.5967 C.ar    1  UNL1        0.1679
     15 C         138.0003  141.8889  161.7546 C.ar    1  UNL1        0.1664
     16 C         137.9738  142.5639  163.0939 C.ar    1  UNL1        0.0122
     17 C         137.2838  141.9058  164.2519 C.3     1  UNL1        0.0340
     18 C         138.6371  143.8969  163.2753 C.ar    1  UNL1       -0.0079
     19 C         138.6106  144.5719  164.6146 C.3     1  UNL1        0.0321
     20 O         137.3369  140.5558  161.5733 O.3     1  UNL1       -0.4631
     21 C         137.3635  139.8808  160.2341 C.3     1  UNL1        0.2898
     22 C         138.0534  140.5390  159.0761 C.2     1  UNL1        0.2718
     23 O         138.0800  139.8640  157.7368 O.2     1  UNL1       -0.2707
     24 N         138.7168  141.8720  159.2574 N.am    1  UNL1       -0.2639
     25 H         139.1696  142.3039  158.4974 H       1  UNL1        0.1565
     26 C         144.4916  140.9264  163.8383 C.3     1  UNL1        0.0320
     27 C         143.8182  139.7435  164.4686 C.3     1  UNL1        0.0327
     28 C         139.7121  139.4484  166.2859 C.ar    1  UNL1        0.2250
     29 C         138.6176  138.7302  165.5535 C.ar    1  UNL1        0.0593
     30 C         138.8919  138.1104  164.2154 C.ar    1  UNL1        0.0254
     31 C         140.2606  138.2087  163.6096 C.ar    1  UNL1        0.0990
     32 N         140.5348  137.5889  162.2715 N.ar    1  UNL1       -0.2400
     33 C         141.9035  137.6872  161.6657 C.ar    1  UNL1        0.1281
     34 C         142.9980  138.4054  162.3981 C.ar    1  UNL1        0.1566
     35 F         144.3667  138.5038  161.7923 F       1  UNL1       -0.2028
     36 C         142.7238  139.0253  163.7362 C.ar    1  UNL1        0.0261
     37 C         141.3550  138.9269  164.3420 C.ar    1  UNL1        0.1002
     38 N         141.0807  139.5467  165.6801 N.ar    1  UNL1       -0.2104
     39 C         140.5011  140.0696  168.6820 C.3     1  UNL1        0.2542
     40 O         139.4378  140.0682  167.6240 O.3     1  UNL1       -0.4561
@<TRIPOS>BOND
     1    39    40    1
     2    40    28    1
     3    28    29   ar
     4    29    30   ar
     5    30    31   ar
     6    31    32   ar
     7    32    33   ar
     8    33    34   ar
     9    34    35    1
    10    34    36   ar
    11    36    27    1
    12    27    26    1
    13    26     1    1
    14     1     2    1
    15     2     3    1
    16     3     4    1
    17     4     9    1
    18     9    11    1
    19    11    12    1
    20    12    13   ar
    21    13    14   ar
    22    14    15   ar
    23    15    16   ar
    24    16    17    1
    25    16    18   ar
    26    18    19    1
    27    15    20    1
    28    20    21    1
    29    21    22    1
    30    22    23    2
    31    22    24   am
    32     4     5    1
    33     5     6    1
    34     4     7    1
    35     7     8    1
    36    36    37   ar
    37    37    38   ar
    38    38    28   ar
    39    37    31   ar
    40     6     1    1
    41     8     1    1
    42    18    12   ar
    43    24    14    1
    44     9    10    1
    45    24    25    1
@<TRIPOS>MOLECULE
*****
 40 45 0 0 0
SMALL
GASTEIGER

@<TRIPOS>ATOM
      1 C         142.8787  144.4324  163.3087 C.3     1  UNL1        0.0932
      2 C         142.9262  143.6390  162.0365 C.3     1  UNL1        0.0286
      3 C         141.6756  143.4318  161.2347 C.3     1  UNL1        0.0193
      4 C         140.3774  144.0180  161.7049 C.3     1  UNL1        0.0700
      5 C         140.3299  144.8114  162.9770 C.3     1  UNL1        0.0193
      6 C         141.5806  145.0186  163.7789 C.3     1  UNL1        0.0286
      7 C         141.0365  144.1583  162.1781 C.3     1  UNL1        0.1562
      8 O         142.1673  144.3457  162.9032 O.3     1  UNL1       -0.3572
      9 N         139.1268  143.8108  160.9031 N.3     1  UNL1       -0.2926
     10 H         139.4005  143.3186  160.0526 H       1  UNL1        0.1236
     11 C         137.9756  143.0506  161.4920 C.3     1  UNL1        0.1148
     12 C         138.2075  141.7116  162.1270 C.ar    1  UNL1        0.0723
     13 N         137.8991  141.5075  163.5807 N.ar    1  UNL1       -0.2308
     14 C         138.1310  140.1684  164.2158 C.ar    1  UNL1        0.1679
     15 C         138.6713  139.0336  163.3971 C.ar    1  UNL1        0.1664
     16 C         138.9796  139.2377  161.9434 C.ar    1  UNL1        0.0122
     17 C         139.5199  138.1028  161.1247 C.3     1  UNL1        0.0340
     18 C         138.7477  140.5767  161.3084 C.ar    1  UNL1       -0.0079
     19 C         139.0561  140.7808  159.8547 C.3     1  UNL1        0.0321
     20 O         138.9032  137.6945  164.0322 O.3     1  UNL1       -0.4631
     21 C         138.5948  137.4904  165.4859 C.3     1  UNL1        0.2898
     22 C         138.0546  138.6253  166.3045 C.2     1  UNL1        0.2718
     23 O         137.7462  138.4212  167.7582 O.2     1  UNL1       -0.2707
     24 N         137.8227  139.9643  165.6695 N.am    1  UNL1       -0.2639
     25 H         137.4681  140.7091  166.2068 H       1  UNL1        0.1565
     26 C         144.1293  144.6396  164.1105 C.3     1  UNL1        0.0320
     27 C         144.4461  143.7243  165.2559 C.3     1  UNL1        0.0327
     28 C         141.1291  141.9183  167.7025 C.ar    1  UNL1        0.2250
     29 C         140.8310  140.4522  167.5955 C.ar    1  UNL1        0.0593
     30 C         141.6386  139.5880  166.6730 C.ar    1  UNL1        0.0254
     31 C         142.7443  140.1900  165.8575 C.ar    1  UNL1        0.0990
     32 N         143.5519  139.3258  164.9350 N.ar    1  UNL1       -0.2400
     33 C         144.6575  139.9277  164.1195 C.ar    1  UNL1        0.1281
     34 C         144.9556  141.3940  164.2265 C.ar    1  UNL1        0.1566
     35 F         146.0613  141.9959  163.4110 F       1  UNL1       -0.2028
     36 C         144.1481  142.2581  165.1490 C.ar    1  UNL1        0.0261
     37 C         143.0423  141.6561  165.9645 C.ar    1  UNL1        0.1002
     38 N         142.2347  142.5203  166.8870 N.ar    1  UNL1       -0.2104
     39 C         140.9485  143.3459  169.8657 C.3     1  UNL1        0.2542
     40 O         140.3215  142.7825  168.6250 O.3     1  UNL1       -0.4561
@<TRIPOS>BOND
     1    39    40    1
     2    40    28    1
     3    28    29   ar
     4    29    30   ar
     5    30    31   ar
     6    31    32   ar
     7    32    33   ar
     8    33    34   ar
     9    34    35    1
    10    34    36   ar
    11    36    27    1
    12    27    26    1
    13    26     1    1
    14     1     2    1
    15     2     3    1
    16     3     4    1
    17     4     9    1
    18     9    11    1
    19    11    12    1
    20    12    13   ar
    21    13    14   ar
    22    14    15   ar
    23    15    16   ar
    24    16    17    1
    25    16    18   ar
    26    18    19    1
    27    15    20    1
    28    20    21    1
    29    21    22    1
    30    22    23    2
    31    22    24   am
    32     4     5    1
    33     5     6    1
    34     4     7    1
    35     7     8    1
    36    36    37   ar
    37    37    38   ar
    38    38    28   ar
    39    37    31   ar
    40     6     1    1
    41     8     1    1
    42    18    12   ar
    43    24    14    1
    44     9    10    1
    45    24    25    1
@<TRIPOS>MOLECULE
*****
 40 45 0 0 0
SMALL
GASTEIGER

@<TRIPOS>ATOM
      1 C         138.7212  144.1434  162.9410 C.3     1  UNL1        0.0932
      2 C         138.9594  143.8715  164.3968 C.3     1  UNL1        0.0286
      3 C         138.6072  142.5341  164.9775 C.3     1  UNL1        0.0193
      4 C         138.0167  141.4684  164.1023 C.3     1  UNL1        0.0700
      5 C         137.7785  141.7403  162.6465 C.3     1  UNL1        0.0193
      6 C         138.1307  143.0779  162.0659 C.3     1  UNL1        0.0286
      7 C         138.1936  142.1858  163.7389 C.3     1  UNL1        0.1562
      8 O         138.5121  143.3952  163.2139 O.3     1  UNL1       -0.3572
      9 N         137.6645  140.1310  164.6829 N.3     1  UNL1       -0.2926
     10 H         136.9482  139.7274  164.0793 H       1  UNL1        0.1236
     11 C         138.7258  139.0850  164.8548 C.3     1  UNL1        0.1148
     12 C         139.7931  139.2629  165.8936 C.ar    1  UNL1        0.0723
     13 N         139.4467  139.8421  167.2332 N.ar    1  UNL1       -0.2308
     14 C         140.5140  140.0201  168.2721 C.ar    1  UNL1        0.1679
     15 C         141.9277  139.6189  167.9713 C.ar    1  UNL1        0.1664
     16 C         142.2741  139.0397  166.6316 C.ar    1  UNL1        0.0122
     17 C         143.6879  138.6385  166.3309 C.3     1  UNL1        0.0340
     18 C         141.2068  138.8617  165.5928 C.ar    1  UNL1       -0.0079
     19 C         141.5532  138.2826  164.2532 C.3     1  UNL1        0.0321
     20 O         142.9951  139.7968  169.0101 O.3     1  UNL1       -0.4631
     21 C         142.6487  140.3760  170.3497 C.3     1  UNL1        0.2898
     22 C         141.2349  140.7772  170.6505 C.2     1  UNL1        0.2718
     23 O         140.8885  141.3563  171.9901 O.2     1  UNL1       -0.2707
     24 N         140.1677  140.5992  169.6117 N.am    1  UNL1       -0.2639
     25 H         139.2398  140.8625  169.8091 H       1  UNL1        0.1565
     26 C         139.0734  145.4808  162.3604 C.3     1  UNL1        0.0320
     27 C         140.5098  145.8377  162.1161 C.3     1  UNL1        0.0327
     28 C         143.9058  143.4555  163.8604 C.ar    1  UNL1        0.2250
     29 C         144.7519  142.5937  162.9709 C.ar    1  UNL1        0.0593
     30 C         144.4660  142.5259  161.5000 C.ar    1  UNL1        0.0254
     31 C         143.3340  143.3199  160.9185 C.ar    1  UNL1        0.0990
     32 N         143.0482  143.2521  159.4476 N.ar    1  UNL1       -0.2400
     33 C         141.9162  144.0461  158.8661 C.ar    1  UNL1        0.1281
     34 C         141.0700  144.9080  159.7557 C.ar    1  UNL1        0.1566
     35 F         139.9380  145.7020  159.1742 F       1  UNL1       -0.2028
     36 C         141.3559  144.9758  161.2266 C.ar    1  UNL1        0.0261
     37 C         142.4879  144.1817  161.8080 C.ar    1  UNL1        0.1002
     38 N         142.7738  144.2496  163.2790 N.ar    1  UNL1       -0.2104
     39 C         143.5080  142.5765  166.2727 C.3     1  UNL1        0.2542
     40 O         144.1916  143.5234  165.3314 O.3     1  UNL1       -0.4561
@<TRIPOS>BOND
     1    39    40    1
     2    40    28    1
     3    28    29   ar
     4    29    30   ar
     5    30    31   ar
     6    31    32   ar
     7    32    33   ar
     8    33    34   ar
     9    34    35    1
    10    34    36   ar
    11    36    27    1
    12    27    26    1
    13    26     1    1
    14     1     2    1
    15     2     3    1
    16     3     4    1
    17     4     9    1
    18     9    11    1
    19    11    12    1
    20    12    13   ar
    21    13    14   ar
    22    14    15   ar
    23    15    16   ar
    24    16    17    1
    25    16    18   ar
    26    18    19    1
    27    15    20    1
    28    20    21    1
    29    21    22    1
    30    22    23    2
    31    22    24   am
    32     4     5    1
    33     5     6    1
    34     4     7    1
    35     7     8    1
    36    36    37   ar
    37    37    38   ar
    38    38    28   ar
    39    37    31   ar
    40     6     1    1
    41     8     1    1
    42    18    12   ar
    43    24    14    1
    44     9    10    1
    45    24    25    1
@<TRIPOS>MOLECULE
*****
 40 45 0 0 0
SMALL
GASTEIGER

@<TRIPOS>ATOM
      1 C         138.9502  143.0688  162.7605 C.3     1  UNL1        0.0932
      2 C         139.7002  143.4075  164.0146 C.3     1  UNL1        0.0286
      3 C         141.0107  144.1325  163.9322 C.3     1  UNL1        0.0193
      4 C         141.5714  144.5188  162.5955 C.3     1  UNL1        0.0700
      5 C         140.8214  144.1801  161.3414 C.3     1  UNL1        0.0193
      6 C         139.5108  143.4550  161.4239 C.3     1  UNL1        0.0286
      7 C         140.8497  144.1225  162.5904 C.3     1  UNL1        0.1562
      8 O         139.6646  143.4669  162.6650 O.3     1  UNL1       -0.3572
      9 N         142.8819  145.2438  162.5131 N.3     1  UNL1       -0.2926
     10 H         142.9172  145.8797  163.3098 H       1  UNL1        0.1236
     11 C         144.1678  144.4716  162.5180 C.3     1  UNL1        0.1148
     12 C         144.1445  142.9752  162.4172 C.ar    1  UNL1        0.0723
     13 N         143.7869  142.3165  161.1179 N.ar    1  UNL1       -0.2308
     14 C         143.7636  140.8200  161.0172 C.ar    1  UNL1        0.1679
     15 C         144.0977  139.9823  162.2157 C.ar    1  UNL1        0.1664
     16 C         144.4553  140.6410  163.5150 C.ar    1  UNL1        0.0122
     17 C         144.7895  139.8032  164.7136 C.3     1  UNL1        0.0340
     18 C         144.4787  142.1374  163.6158 C.ar    1  UNL1       -0.0079
     19 C         144.8362  142.7961  164.9152 C.3     1  UNL1        0.0321
     20 O         144.0744  138.4858  162.1150 O.3     1  UNL1       -0.4631
     21 C         143.7168  137.8271  160.8156 C.3     1  UNL1        0.2898
     22 C         143.3826  138.6649  159.6170 C.2     1  UNL1        0.2718
     23 O         143.0251  138.0062  158.3177 O.2     1  UNL1       -0.2707
     24 N         143.4060  140.1613  159.7178 N.am    1  UNL1       -0.2639
     25 H         143.1867  140.7111  158.9312 H       1  UNL1        0.1565
     26 C         137.6397  142.3438  162.8430 C.3     1  UNL1        0.0320
     27 C         137.5775  140.9736  163.4504 C.3     1  UNL1        0.0327
     28 C         140.9568  139.2449  165.8673 C.ar    1  UNL1        0.2250
     29 C         141.7924  138.1351  165.3016 C.ar    1  UNL1        0.0593
     30 C         141.5015  137.6015  163.9302 C.ar    1  UNL1        0.0254
     31 C         140.3750  138.1777  163.1246 C.ar    1  UNL1        0.0990
     32 N         140.0842  137.6440  161.7532 N.ar    1  UNL1       -0.2400
     33 C         138.9577  138.2202  160.9476 C.ar    1  UNL1        0.1281
     34 C         138.1221  139.3301  161.5133 C.ar    1  UNL1        0.1566
     35 F         136.9957  139.9063  160.7077 F       1  UNL1       -0.2028
     36 C         138.4130  139.8638  162.8846 C.ar    1  UNL1        0.0261
     37 C         139.5395  139.2875  163.6903 C.ar    1  UNL1        0.1002
     38 N         139.8304  139.8211  165.0616 N.ar    1  UNL1       -0.2104
     39 C         142.5660  139.4878  167.8925 C.3     1  UNL1        0.2542
     40 O         141.2477  139.7786  167.2386 O.3     1  UNL1       -0.4561
@<TRIPOS>BOND
     1    39    40    1
     2    40    28    1
     3    28    29   ar
     4    29    30   ar
     5    30    31   ar
     6    31    32   ar
     7    32    33   ar
     8    33    34   ar
     9    34    35    1
    10    34    36   ar
    11    36    27    1
    12    27    26    1
    13    26     1    1
    14     1     2    1
    15     2     3    1
    16     3     4    1
    17     4     9    1
    18     9    11    1
    19    11    12    1
    20    12    13   ar
    21    13    14   ar
    22    14    15   ar
    23    15    16   ar
    24    16    17    1
    25    16    18   ar
    26    18    19    1
    27    15    20    1
    28    20    21    1
    29    21    22    1
    30    22    23    2
    31    22    24   am
    32     4     5    1
    33     5     6    1
    34     4     7    1
    35     7     8    1
    36    36    37   ar
    37    37    38   ar
    38    38    28   ar
    39    37    31   ar
    40     6     1    1
    41     8     1    1
    42    18    12   ar
    43    24    14    1
    44     9    10    1
    45    24    25    1
@<TRIPOS>MOLECULE
*****
 40 45 0 0 0
SMALL
GASTEIGER

@<TRIPOS>ATOM
      1 C         143.8754  142.1304  161.8449 C.3     1  UNL1        0.0932
      2 C         144.7711  141.1101  162.4826 C.3     1  UNL1        0.0286
      3 C         144.3851  139.6607  162.4700 C.3     1  UNL1        0.0193
      4 C         143.1033  139.2315  161.8197 C.3     1  UNL1        0.0700
      5 C         142.2076  140.2518  161.1819 C.3     1  UNL1        0.0193
      6 C         142.5937  141.7012  161.1946 C.3     1  UNL1        0.0286
      7 C         143.2726  140.0371  161.8016 C.3     1  UNL1        0.1562
      8 O         143.6216  141.3477  161.8130 O.3     1  UNL1       -0.3572
      9 N         142.7173  137.7821  161.8071 N.3     1  UNL1       -0.2926
     10 H         143.5243  137.2595  162.1480 H       1  UNL1        0.1236
     11 C         141.5325  137.3146  162.5992 C.3     1  UNL1        0.1148
     12 C         141.1492  138.0234  163.8644 C.ar    1  UNL1        0.0723
     13 N         142.1365  138.1394  164.9877 N.ar    1  UNL1       -0.2308
     14 C         141.7531  138.8483  166.2529 C.ar    1  UNL1        0.1679
     15 C         140.3825  139.4410  166.3947 C.ar    1  UNL1        0.1664
     16 C         139.3953  139.3250  165.2714 C.ar    1  UNL1        0.0122
     17 C         138.0246  139.9178  165.4133 C.3     1  UNL1        0.0340
     18 C         139.7786  138.6162  164.0063 C.ar    1  UNL1       -0.0079
     19 C         138.7913  138.5001  162.8829 C.3     1  UNL1        0.0321
     20 O         139.9992  140.1499  167.6599 O.3     1  UNL1       -0.4631
     21 C         140.9864  140.2659  168.7832 C.3     1  UNL1        0.2898
     22 C         142.3570  139.6731  168.6414 C.2     1  UNL1        0.2718
     23 O         143.3443  139.7892  169.7647 O.2     1  UNL1       -0.2707
     24 N         142.7404  138.9643  167.3762 N.am    1  UNL1       -0.2639
     25 H         143.6399  138.5753  167.2831 H       1  UNL1        0.1565
     26 C         144.2614  143.5798  161.8575 C.3     1  UNL1        0.0320
     27 C         143.9743  144.4219  163.0652 C.3     1  UNL1        0.0327
     28 C         139.4921  144.7503  163.2935 C.ar    1  UNL1        0.2250
     29 C         138.7555  144.1620  164.4602 C.ar    1  UNL1        0.0593
     30 C         139.5129  143.4642  165.5508 C.ar    1  UNL1        0.0254
     31 C         141.0070  143.3547  165.4747 C.ar    1  UNL1        0.0990
     32 N         141.7644  142.6570  166.5653 N.ar    1  UNL1       -0.2400
     33 C         143.2584  142.5475  166.4893 C.ar    1  UNL1        0.1281
     34 C         143.9951  143.1358  165.3225 C.ar    1  UNL1        0.1566
     35 F         145.4891  143.0264  165.2464 F       1  UNL1       -0.2028
     36 C         143.2377  143.8336  164.2319 C.ar    1  UNL1        0.0261
     37 C         141.7436  143.9430  164.3080 C.ar    1  UNL1        0.1002
     38 N         140.9862  144.6408  163.2174 N.ar    1  UNL1       -0.2104
     39 C         139.4427  146.4093  161.2947 C.3     1  UNL1        0.2542
     40 O         138.7347  145.4481  162.2029 O.3     1  UNL1       -0.4561
@<TRIPOS>BOND
     1    39    40    1
     2    40    28    1
     3    28    29   ar
     4    29    30   ar
     5    30    31   ar
     6    31    32   ar
     7    32    33   ar
     8    33    34   ar
     9    34    35    1
    10    34    36   ar
    11    36    27    1
    12    27    26    1
    13    26     1    1
    14     1     2    1
    15     2     3    1
    16     3     4    1
    17     4     9    1
    18     9    11    1
    19    11    12    1
    20    12    13   ar
    21    13    14   ar
    22    14    15   ar
    23    15    16   ar
    24    16    17    1
    25    16    18   ar
    26    18    19    1
    27    15    20    1
    28    20    21    1
    29    21    22    1
    30    22    23    2
    31    22    24   am
    32     4     5    1
    33     5     6    1
    34     4     7    1
    35     7     8    1
    36    36    37   ar
    37    37    38   ar
    38    38    28   ar
    39    37    31   ar
    40     6     1    1
    41     8     1    1
    42    18    12   ar
    43    24    14    1
    44     9    10    1
    45    24    25    1
@<TRIPOS>MOLECULE
*****
 40 45 0 0 0
SMALL
GASTEIGER

@<TRIPOS>ATOM
      1 C         140.8204  144.9085  163.3630 C.3     1  UNL1        0.0932
      2 C         140.9290  144.5817  161.9030 C.3     1  UNL1        0.0286
      3 C         142.2494  144.1698  161.3228 C.3     1  UNL1        0.0193
      4 C         143.4614  144.0847  162.2026 C.3     1  UNL1        0.0700
      5 C         143.3529  144.4115  163.6626 C.3     1  UNL1        0.0193
      6 C         142.0323  144.8234  164.2427 C.3     1  UNL1        0.0286
      7 C         142.7594  144.3151  162.5659 C.3     1  UNL1        0.1562
      8 O         141.5654  144.6875  163.0906 O.3     1  UNL1       -0.3572
      9 N         144.7819  143.6728  161.6224 N.3     1  UNL1       -0.2926
     10 H         145.5020  144.0071  162.2628 H       1  UNL1        0.1236
     11 C         145.0692  142.2230  161.3665 C.3     1  UNL1        0.1148
     12 C         144.1867  141.1669  161.9629 C.ar    1  UNL1        0.0723
     13 N         142.9664  140.7038  161.2237 N.ar    1  UNL1       -0.2308
     14 C         142.0839  139.6476  161.8202 C.ar    1  UNL1        0.1679
     15 C         142.4217  139.0546  163.1559 C.ar    1  UNL1        0.1664
     16 C         143.6420  139.5177  163.8951 C.ar    1  UNL1        0.0122
     17 C         143.9797  138.9245  165.2309 C.3     1  UNL1        0.0340
     18 C         144.5245  140.5738  163.2987 C.ar    1  UNL1       -0.0079
     19 C         145.7447  141.0368  164.0380 C.3     1  UNL1        0.0321
     20 O         141.5392  137.9984  163.7524 O.3     1  UNL1       -0.4631
     21 C         140.3189  137.5353  163.0131 C.3     1  UNL1        0.2898
     22 C         139.9812  138.1285  161.6773 C.2     1  UNL1        0.2718
     23 O         138.7609  137.6654  160.9381 O.2     1  UNL1       -0.2707
     24 N         140.8637  139.1846  161.0809 N.am    1  UNL1       -0.2639
     25 H         140.6420  139.5738  160.2042 H       1  UNL1        0.1565
     26 C         139.5000  145.3204  163.9432 C.3     1  UNL1        0.0320
     27 C         138.8581  144.4873  165.0129 C.3     1  UNL1        0.0327
     28 C         141.3418  141.9322  167.7610 C.ar    1  UNL1        0.2250
     29 C         141.3091  140.4383  167.6297 C.ar    1  UNL1        0.0593
     30 C         140.4485  139.7962  166.5824 C.ar    1  UNL1        0.0254
     31 C         139.6206  140.6478  165.6663 C.ar    1  UNL1        0.0990
     32 N         138.7599  140.0057  164.6190 N.ar    1  UNL1       -0.2400
     33 C         137.9320  140.8574  163.7030 C.ar    1  UNL1        0.1281
     34 C         137.9647  142.3513  163.8342 C.ar    1  UNL1        0.1566
     35 F         137.1368  143.2030  162.9182 F       1  UNL1       -0.2028
     36 C         138.8254  142.9935  164.8816 C.ar    1  UNL1        0.0261
     37 C         139.6533  142.1417  165.7976 C.ar    1  UNL1        0.1002
     38 N         140.5139  142.7839  166.8450 N.ar    1  UNL1       -0.2104
     39 C         143.1395  141.7361  169.6265 C.3     1  UNL1        0.2542
     40 O         142.2025  142.5744  168.8083 O.3     1  UNL1       -0.4561
@<TRIPOS>BOND
     1    39    40    1
     2    40    28    1
     3    28    29   ar
     4    29    30   ar
     5    30    31   ar
     6    31    32   ar
     7    32    33   ar
     8    33    34   ar
     9    34    35    1
    10    34    36   ar
    11    36    27    1
    12    27    26    1
    13    26     1    1
    14     1     2    1
    15     2     3    1
    16     3     4    1
    17     4     9    1
    18     9    11    1
    19    11    12    1
    20    12    13   ar
    21    13    14   ar
    22    14    15   ar
    23    15    16   ar
    24    16    17    1
    25    16    18   ar
    26    18    19    1
    27    15    20    1
    28    20    21    1
    29    21    22    1
    30    22    23    2
    31    22    24   am
    32     4     5    1
    33     5     6    1
    34     4     7    1
    35     7     8    1
    36    36    37   ar
    37    37    38   ar
    38    38    28   ar
    39    37    31   ar
    40     6     1    1
    41     8     1    1
    42    18    12   ar
    43    24    14    1
    44     9    10    1
    45    24    25    1
