@<TRIPOS>MOLECULE
*****
 26 28 0 0 0
SMALL
GASTEIGER

@<TRIPOS>ATOM
      1 N         141.8520  139.2978  161.6458 N.am    1  UNL1       -0.2777
      2 C         141.3614  138.4287  162.7656 C.2     1  UNL1        0.2842
      3 O         140.6014  137.1717  162.4616 O.2     1  UNL1       -0.2665
      4 H         142.3508  140.1229  161.8453 H       1  UNL1        0.1553
      5 C         142.3460  137.7618  158.0200 C.ar    1  UNL1        0.1430
      6 C         142.6153  138.1497  159.4437 C.ar    1  UNL1        0.0518
      7 C         141.5827  138.9099  160.2220 C.ar    1  UNL1        0.0567
      8 C         140.2808  139.2821  159.5767 C.ar    1  UNL1        0.0518
      9 C         140.0115  138.8941  158.1531 C.ar    1  UNL1        0.1430
     10 C         141.0441  138.1340  157.3747 C.ar    1  UNL1        0.0738
     11 C         143.0667  135.6292  156.7228 C.3     1  UNL1        0.2525
     12 O         143.3786  137.0016  157.2416 O.3     1  UNL1       -0.4713
     13 O         138.7095  139.2663  157.5077 O.3     1  UNL1       -0.4713
     14 C         138.6886  139.7600  156.0914 C.3     1  UNL1        0.2525
     15 C         141.6307  138.8166  164.1893 C.ar    1  UNL1        0.1986
     16 C         142.7819  138.3469  165.0284 C.ar    1  UNL1        0.0454
     17 C         142.6588  138.9823  166.3816 C.ar    1  UNL1        0.0408
     18 C         141.4315  139.8448  166.3788 C.ar    1  UNL1        0.1455
     19 O         140.7961  139.7424  165.0239 O.2     1  UNL1       -0.4489
     20 C         140.9281  140.6656  167.5289 C.ar    1  UNL1        0.0346
     21 C         140.0214  140.0472  168.5514 C.ar    1  UNL1        0.0039
     22 C         139.5180  140.8680  169.7016 C.ar    1  UNL1        0.0115
     23 C         139.9211  142.3070  169.8293 C.ar    1  UNL1        0.0577
     24 CL        139.4177  143.1278  170.9794 Cl      1  UNL1       -0.0822
     25 C         140.8278  142.9255  168.8068 C.ar    1  UNL1        0.0115
     26 C         141.3313  142.1047  167.6566 C.ar    1  UNL1        0.0039
@<TRIPOS>BOND
     1    11    12    1
     2    12     5    1
     3     5     6   ar
     4     6     7   ar
     5     7     1    1
     6     1     2   am
     7     2     3    2
     8     2    15    1
     9    15    16   ar
    10    16    17   ar
    11    17    18   ar
    12    18    20    1
    13    20    21   ar
    14    21    22   ar
    15    22    23   ar
    16    23    24    1
    17    23    25   ar
    18    25    26   ar
    19    18    19   ar
    20     7     8   ar
    21     8     9   ar
    22     9    13    1
    23    13    14    1
    24     9    10   ar
    25    10     5   ar
    26    19    15   ar
    27    26    20   ar
    28     1     4    1
@<TRIPOS>MOLECULE
*****
 26 28 0 0 0
SMALL
GASTEIGER

@<TRIPOS>ATOM
      1 N         139.9956  139.2290  161.2719 N.am    1  UNL1       -0.2777
      2 C         140.3767  138.3055  162.3909 C.2     1  UNL1        0.2842
      3 O         141.2478  137.1153  162.1174 O.2     1  UNL1       -0.2665
      4 H         139.4239  140.0101  161.4514 H       1  UNL1        0.1553
      5 C         140.0616  138.0660  157.4781 C.ar    1  UNL1        0.1430
      6 C         139.5716  138.3327  158.8704 C.ar    1  UNL1        0.0518
      7 C         140.4857  138.9622  159.8795 C.ar    1  UNL1        0.0567
      8 C         141.8897  139.3250  159.4962 C.ar    1  UNL1        0.0518
      9 C         142.3797  139.0583  158.1038 C.ar    1  UNL1        0.1430
     10 C         141.4656  138.4288  157.0948 C.ar    1  UNL1        0.0738
     11 C         139.7141  136.8276  155.2207 C.3     1  UNL1        0.2525
     12 O         139.1475  137.4365  156.4690 O.3     1  UNL1       -0.4713
     13 O         143.7838  139.4211  157.7204 O.3     1  UNL1       -0.4713
     14 C         144.1050  139.7773  156.2992 C.3     1  UNL1        0.2525
     15 C         139.8867  138.5722  163.7832 C.ar    1  UNL1        0.1986
     16 C         138.8465  137.7803  164.5186 C.ar    1  UNL1        0.0454
     17 C         138.6677  138.3962  165.8746 C.ar    1  UNL1        0.0408
     18 C         139.5975  139.5689  165.9772 C.ar    1  UNL1        0.1455
     19 O         140.3508  139.6776  164.6847 O.2     1  UNL1       -0.4489
     20 C         139.7475  140.4739  167.1640 C.ar    1  UNL1        0.0346
     21 C         139.3112  140.0089  168.5217 C.ar    1  UNL1        0.0039
     22 C         139.4613  140.9139  169.7085 C.ar    1  UNL1        0.0115
     23 C         140.0476  142.2838  169.5376 C.ar    1  UNL1        0.0577
     24 CL        140.1977  143.1888  170.7244 Cl      1  UNL1       -0.0822
     25 C         140.4840  142.7489  168.1799 C.ar    1  UNL1        0.0115
     26 C         140.3339  141.8439  166.9931 C.ar    1  UNL1        0.0039
@<TRIPOS>BOND
     1    11    12    1
     2    12     5    1
     3     5     6   ar
     4     6     7   ar
     5     7     1    1
     6     1     2   am
     7     2     3    2
     8     2    15    1
     9    15    16   ar
    10    16    17   ar
    11    17    18   ar
    12    18    20    1
    13    20    21   ar
    14    21    22   ar
    15    22    23   ar
    16    23    24    1
    17    23    25   ar
    18    25    26   ar
    19    18    19   ar
    20     7     8   ar
    21     8     9   ar
    22     9    13    1
    23    13    14    1
    24     9    10   ar
    25    10     5   ar
    26    19    15   ar
    27    26    20   ar
    28     1     4    1
@<TRIPOS>MOLECULE
*****
 26 28 0 0 0
SMALL
GASTEIGER

@<TRIPOS>ATOM
      1 N         141.9681  139.2426  161.5874 N.am    1  UNL1       -0.2777
      2 C         141.4759  138.4086  162.7329 C.2     1  UNL1        0.2842
      3 O         140.6897  137.1590  162.4674 O.2     1  UNL1       -0.2665
      4 H         142.4841  140.0627  161.7616 H       1  UNL1        0.1553
      5 C         140.0634  138.7634  158.1388 C.ar    1  UNL1        0.1430
      6 C         140.3575  139.1790  159.5497 C.ar    1  UNL1        0.0518
      7 C         141.6741  138.8269  160.1764 C.ar    1  UNL1        0.0567
      8 C         142.6966  138.0593  159.3921 C.ar    1  UNL1        0.0518
      9 C         142.4025  137.6437  157.9812 C.ar    1  UNL1        0.1430
     10 C         141.0859  137.9957  157.3545 C.ar    1  UNL1        0.0738
     11 C         138.5289  140.4871  156.9455 C.3     1  UNL1        0.2525
     12 O         138.7469  139.1155  157.5121 O.3     1  UNL1       -0.4713
     13 O         143.4250  136.8760  157.1968 O.3     1  UNL1       -0.4713
     14 C         143.0305  135.6206  156.4769 C.3     1  UNL1        0.2525
     15 C         141.7699  138.8242  164.1439 C.ar    1  UNL1        0.1986
     16 C         142.9854  138.4487  164.9385 C.ar    1  UNL1        0.0454
     17 C         142.8668  139.0807  166.2936 C.ar    1  UNL1        0.0408
     18 C         141.5778  139.8468  166.3366 C.ar    1  UNL1        0.1455
     19 O         140.8999  139.6883  165.0080 O.2     1  UNL1       -0.4489
     20 C         141.0581  140.6333  167.5033 C.ar    1  UNL1        0.0346
     21 C         139.9902  140.0535  168.3827 C.ar    1  UNL1        0.0039
     22 C         139.4705  140.8400  169.5494 C.ar    1  UNL1        0.0115
     23 C         140.0186  142.2063  169.8368 C.ar    1  UNL1        0.0577
     24 CL        139.4989  142.9928  171.0035 Cl      1  UNL1       -0.0822
     25 C         141.0865  142.7861  168.9574 C.ar    1  UNL1        0.0115
     26 C         141.6063  141.9997  167.7907 C.ar    1  UNL1        0.0039
@<TRIPOS>BOND
     1    11    12    1
     2    12     5    1
     3     5     6   ar
     4     6     7   ar
     5     7     1    1
     6     1     2   am
     7     2     3    2
     8     2    15    1
     9    15    16   ar
    10    16    17   ar
    11    17    18   ar
    12    18    20    1
    13    20    21   ar
    14    21    22   ar
    15    22    23   ar
    16    23    24    1
    17    23    25   ar
    18    25    26   ar
    19    18    19   ar
    20     7     8   ar
    21     8     9   ar
    22     9    13    1
    23    13    14    1
    24     9    10   ar
    25    10     5   ar
    26    19    15   ar
    27    26    20   ar
    28     1     4    1
@<TRIPOS>MOLECULE
*****
 26 28 0 0 0
SMALL
GASTEIGER

@<TRIPOS>ATOM
      1 N         142.2890  142.9414  161.5818 N.am    1  UNL1       -0.2777
      2 C         143.0341  143.6595  162.6676 C.2     1  UNL1        0.2842
      3 O         143.8572  144.8697  162.3386 O.2     1  UNL1       -0.2665
      4 H         141.7488  142.1472  161.7977 H       1  UNL1        0.1553
      5 C         143.4191  143.3055  157.7949 C.ar    1  UNL1        0.1430
      6 C         143.3412  142.8135  159.2097 C.ar    1  UNL1        0.0518
      7 C         142.3668  143.4335  160.1669 C.ar    1  UNL1        0.0567
      8 C         141.4703  144.5456  159.7092 C.ar    1  UNL1        0.0518
      9 C         141.5482  145.0376  158.2944 C.ar    1  UNL1        0.1430
     10 C         142.5226  144.4176  157.3372 C.ar    1  UNL1        0.0738
     11 C         145.7123  142.1739  157.3364 C.3     1  UNL1        0.2525
     12 O         144.3934  142.6855  156.8378 O.3     1  UNL1       -0.4713
     13 O         140.6517  146.1498  157.8366 O.3     1  UNL1       -0.4713
     14 C         139.8289  145.9863  156.5931 C.3     1  UNL1        0.2525
     15 C         142.9563  143.1675  164.0825 C.ar    1  UNL1        0.1986
     16 C         144.1000  143.0775  165.0488 C.ar    1  UNL1        0.0454
     17 C         143.5717  142.5335  166.3430 C.ar    1  UNL1        0.0408
     18 C         142.1014  142.2872  166.1765 C.ar    1  UNL1        0.1455
     19 O         141.7211  142.6790  164.7794 O.2     1  UNL1       -0.4489
     20 C         141.1743  141.7443  167.2233 C.ar    1  UNL1        0.0346
     21 C         141.0218  142.4587  168.5333 C.ar    1  UNL1        0.0039
     22 C         140.0946  141.9159  169.5801 C.ar    1  UNL1        0.0115
     23 C         139.3201  140.6587  169.3168 C.ar    1  UNL1        0.0577
     24 CL        138.3930  140.1158  170.3636 Cl      1  UNL1       -0.0822
     25 C         139.4726  139.9442  168.0068 C.ar    1  UNL1        0.0115
     26 C         140.3997  140.4870  166.9600 C.ar    1  UNL1        0.0039
@<TRIPOS>BOND
     1    11    12    1
     2    12     5    1
     3     5     6   ar
     4     6     7   ar
     5     7     1    1
     6     1     2   am
     7     2     3    2
     8     2    15    1
     9    15    16   ar
    10    16    17   ar
    11    17    18   ar
    12    18    20    1
    13    20    21   ar
    14    21    22   ar
    15    22    23   ar
    16    23    24    1
    17    23    25   ar
    18    25    26   ar
    19    18    19   ar
    20     7     8   ar
    21     8     9   ar
    22     9    13    1
    23    13    14    1
    24     9    10   ar
    25    10     5   ar
    26    19    15   ar
    27    26    20   ar
    28     1     4    1
@<TRIPOS>MOLECULE
*****
 26 28 0 0 0
SMALL
GASTEIGER

@<TRIPOS>ATOM
      1 N         143.0089  137.2628  160.4868 N.am    1  UNL1       -0.2777
      2 C         142.6640  138.0042  159.2293 C.2     1  UNL1        0.2842
      3 O         142.2727  139.4508  159.2949 O.2     1  UNL1       -0.2665
      4 H         143.2657  136.3133  160.4438 H       1  UNL1        0.1553
      5 C         141.6573  138.6545  163.9490 C.ar    1  UNL1        0.1430
      6 C         141.7038  137.9494  162.6259 C.ar    1  UNL1        0.0518
      7 C         142.9624  137.9680  161.8100 C.ar    1  UNL1        0.0567
      8 C         144.1744  138.6917  162.3171 C.ar    1  UNL1        0.0518
      9 C         144.1278  139.3968  163.6402 C.ar    1  UNL1        0.1430
     10 C         142.8693  139.3782  164.4561 C.ar    1  UNL1        0.0738
     11 C         139.2991  137.6738  164.4256 C.3     1  UNL1        0.2525
     12 O         140.3987  138.6359  164.7649 O.3     1  UNL1       -0.4713
     13 O         145.3398  140.1206  164.1474 O.3     1  UNL1       -0.4713
     14 C         145.6589  141.4958  163.6406 C.3     1  UNL1        0.2525
     15 C         142.7105  137.2991  157.9062 C.ar    1  UNL1        0.1986
     16 C         142.5310  137.9369  156.5605 C.ar    1  UNL1        0.0454
     17 C         142.6542  136.8644  155.5191 C.ar    1  UNL1        0.0408
     18 C         142.9099  135.5637  156.2212 C.ar    1  UNL1        0.1455
     19 O         142.9447  135.8324  157.6965 O.2     1  UNL1       -0.4489
     20 C         143.0978  134.2288  155.5634 C.ar    1  UNL1        0.0346
     21 C         142.4106  133.9295  154.2642 C.ar    1  UNL1        0.0039
     22 C         142.5984  132.5946  153.6065 C.ar    1  UNL1        0.0115
     23 C         143.4735  131.5589  154.2480 C.ar    1  UNL1        0.0577
     24 CL        143.6614  130.2240  153.5902 Cl      1  UNL1       -0.0822
     25 C         144.1608  131.8582  155.5472 C.ar    1  UNL1        0.0115
     26 C         143.9729  133.1931  156.2050 C.ar    1  UNL1        0.0039
@<TRIPOS>BOND
     1    11    12    1
     2    12     5    1
     3     5     6   ar
     4     6     7   ar
     5     7     1    1
     6     1     2   am
     7     2     3    2
     8     2    15    1
     9    15    16   ar
    10    16    17   ar
    11    17    18   ar
    12    18    20    1
    13    20    21   ar
    14    21    22   ar
    15    22    23   ar
    16    23    24    1
    17    23    25   ar
    18    25    26   ar
    19    18    19   ar
    20     7     8   ar
    21     8     9   ar
    22     9    13    1
    23    13    14    1
    24     9    10   ar
    25    10     5   ar
    26    19    15   ar
    27    26    20   ar
    28     1     4    1
@<TRIPOS>MOLECULE
*****
 26 28 0 0 0
SMALL
GASTEIGER

@<TRIPOS>ATOM
      1 N         139.3842  140.4110  160.9333 N.am    1  UNL1       -0.2777
      2 C         138.5357  140.5989  162.1559 C.2     1  UNL1        0.2842
      3 O         137.3055  141.4548  162.0908 O.2     1  UNL1       -0.2665
      4 H         140.1916  139.8493  160.9760 H       1  UNL1        0.1553
      5 C         137.7176  141.0446  157.3877 C.ar    1  UNL1        0.1430
      6 C         138.0993  140.3767  158.6754 C.ar    1  UNL1        0.0518
      7 C         139.0025  141.0790  159.6456 C.ar    1  UNL1        0.0567
      8 C         139.5239  142.4491  159.3280 C.ar    1  UNL1        0.0518
      9 C         139.1422  143.1170  158.0404 C.ar    1  UNL1        0.1430
     10 C         138.2390  142.4147  157.0702 C.ar    1  UNL1        0.0738
     11 C         135.3691  140.7315  156.3218 C.3     1  UNL1        0.2525
     12 O         136.8145  140.3423  156.4175 O.3     1  UNL1       -0.4713
     13 O         139.6636  144.4871  157.7228 O.3     1  UNL1       -0.4713
     14 C         140.3369  145.2992  158.7892 C.3     1  UNL1        0.2525
     15 C         138.9173  139.9311  163.4436 C.ar    1  UNL1        0.1986
     16 C         138.7283  138.4802  163.7741 C.ar    1  UNL1        0.0454
     17 C         139.2492  138.2492  165.1617 C.ar    1  UNL1        0.0408
     18 C         139.7601  139.5573  165.6888 C.ar    1  UNL1        0.1455
     19 O         139.5550  140.5967  164.6269 O.2     1  UNL1       -0.4489
     20 C         140.3692  139.7858  167.0404 C.ar    1  UNL1        0.0346
     21 C         141.8576  139.7187  167.2133 C.ar    1  UNL1        0.0039
     22 C         142.4667  139.9472  168.5649 C.ar    1  UNL1        0.0115
     23 C         141.5873  140.2429  169.7435 C.ar    1  UNL1        0.0577
     24 CL        142.1964  140.4714  171.0951 Cl      1  UNL1       -0.0822
     25 C         140.0989  140.3100  169.5706 C.ar    1  UNL1        0.0115
     26 C         139.4898  140.0815  168.2190 C.ar    1  UNL1        0.0039
@<TRIPOS>BOND
     1    11    12    1
     2    12     5    1
     3     5     6   ar
     4     6     7   ar
     5     7     1    1
     6     1     2   am
     7     2     3    2
     8     2    15    1
     9    15    16   ar
    10    16    17   ar
    11    17    18   ar
    12    18    20    1
    13    20    21   ar
    14    21    22   ar
    15    22    23   ar
    16    23    24    1
    17    23    25   ar
    18    25    26   ar
    19    18    19   ar
    20     7     8   ar
    21     8     9   ar
    22     9    13    1
    23    13    14    1
    24     9    10   ar
    25    10     5   ar
    26    19    15   ar
    27    26    20   ar
    28     1     4    1
@<TRIPOS>MOLECULE
*****
 26 28 0 0 0
SMALL
GASTEIGER

@<TRIPOS>ATOM
      1 N         140.7441  144.5900  160.5516 N.am    1  UNL1       -0.2777
      2 C         139.5228  143.8153  160.9493 C.2     1  UNL1        0.2842
      3 O         138.6354  143.2213  159.8958 O.2     1  UNL1       -0.2665
      4 H         141.3266  144.9798  161.2430 H       1  UNL1        0.1553
      5 C         140.6840  145.9792  156.8346 C.ar    1  UNL1        0.1430
      6 C         140.3501  145.7984  158.2857 C.ar    1  UNL1        0.0518
      7 C         141.0781  144.7707  159.1004 C.ar    1  UNL1        0.0567
      8 C         142.1399  143.9237  158.4640 C.ar    1  UNL1        0.0518
      9 C         142.4738  144.1044  157.0129 C.ar    1  UNL1        0.1430
     10 C         141.7458  145.1322  156.1982 C.ar    1  UNL1        0.0738
     11 C         138.6667  146.6504  155.3413 C.3     1  UNL1        0.2525
     12 O         139.9560  147.0069  156.0198 O.3     1  UNL1       -0.4713
     13 O         143.5357  143.2574  156.3765 O.3     1  UNL1       -0.4713
     14 C         144.2607  142.2268  157.1901 C.3     1  UNL1        0.2525
     15 C         139.1888  143.6346  162.4004 C.ar    1  UNL1        0.1986
     16 C         138.1037  144.3481  163.1509 C.ar    1  UNL1        0.0454
     17 C         138.1255  143.8631  164.5702 C.ar    1  UNL1        0.0408
     18 C         139.2243  142.8498  164.6969 C.ar    1  UNL1        0.1455
     19 O         139.8814  142.7085  163.3559 O.2     1  UNL1       -0.4489
     20 C         139.5999  142.1080  165.9453 C.ar    1  UNL1        0.0346
     21 C         139.2255  140.6639  166.1010 C.ar    1  UNL1        0.0039
     22 C         139.6011  139.9221  167.3495 C.ar    1  UNL1        0.0115
     23 C         140.3512  140.6244  168.4422 C.ar    1  UNL1        0.0577
     24 CL        140.7268  139.8826  169.6906 Cl      1  UNL1       -0.0822
     25 C         140.7256  142.0685  168.2865 C.ar    1  UNL1        0.0115
     26 C         140.3500  142.8103  167.0381 C.ar    1  UNL1        0.0039
@<TRIPOS>BOND
     1    11    12    1
     2    12     5    1
     3     5     6   ar
     4     6     7   ar
     5     7     1    1
     6     1     2   am
     7     2     3    2
     8     2    15    1
     9    15    16   ar
    10    16    17   ar
    11    17    18   ar
    12    18    20    1
    13    20    21   ar
    14    21    22   ar
    15    22    23   ar
    16    23    24    1
    17    23    25   ar
    18    25    26   ar
    19    18    19   ar
    20     7     8   ar
    21     8     9   ar
    22     9    13    1
    23    13    14    1
    24     9    10   ar
    25    10     5   ar
    26    19    15   ar
    27    26    20   ar
    28     1     4    1
@<TRIPOS>MOLECULE
*****
 26 28 0 0 0
SMALL
GASTEIGER

@<TRIPOS>ATOM
      1 N         140.8187  144.5602  160.3770 N.am    1  UNL1       -0.2777
      2 C         139.6012  143.7901  160.7950 C.2     1  UNL1        0.2842
      3 O         138.7168  143.1642  159.7576 O.2     1  UNL1       -0.2665
      4 H         141.3991  144.9710  161.0578 H       1  UNL1        0.1553
      5 C         142.4958  143.9380  156.8343 C.ar    1  UNL1        0.1430
      6 C         142.1627  143.7939  158.2897 C.ar    1  UNL1        0.0518
      7 C         141.1518  144.7043  158.9215 C.ar    1  UNL1        0.0567
      8 C         140.4740  145.7589  158.0979 C.ar    1  UNL1        0.0518
      9 C         140.8071  145.9030  156.6425 C.ar    1  UNL1        0.1430
     10 C         141.8180  144.9925  156.0107 C.ar    1  UNL1        0.0738
     11 C         144.5828  142.4045  157.0415 C.3     1  UNL1        0.2525
     12 O         143.5067  143.0275  156.2026 O.3     1  UNL1       -0.4713
     13 O         140.1293  146.9576  155.8187 O.3     1  UNL1       -0.4713
     14 C         138.7113  146.7627  155.3702 C.3     1  UNL1        0.2525
     15 C         139.2681  143.6460  162.2504 C.ar    1  UNL1        0.1986
     16 C         138.2438  144.4419  163.0035 C.ar    1  UNL1        0.0454
     17 C         138.2434  143.9685  164.4268 C.ar    1  UNL1        0.0408
     18 C         139.2676  142.8798  164.5534 C.ar    1  UNL1        0.1455
     19 O         139.9008  142.6805  163.2083 O.2     1  UNL1       -0.4489
     20 C         139.6000  142.1233  165.8052 C.ar    1  UNL1        0.0346
     21 C         139.1528  140.7003  165.9627 C.ar    1  UNL1        0.0039
     22 C         139.4852  139.9438  167.2146 C.ar    1  UNL1        0.0115
     23 C         140.2649  140.6103  168.3089 C.ar    1  UNL1        0.0577
     24 CL        140.5974  139.8538  169.5608 Cl      1  UNL1       -0.0822
     25 C         140.7122  142.0334  168.1515 C.ar    1  UNL1        0.0115
     26 C         140.3798  142.7899  166.8996 C.ar    1  UNL1        0.0039
@<TRIPOS>BOND
     1    11    12    1
     2    12     5    1
     3     5     6   ar
     4     6     7   ar
     5     7     1    1
     6     1     2   am
     7     2     3    2
     8     2    15    1
     9    15    16   ar
    10    16    17   ar
    11    17    18   ar
    12    18    20    1
    13    20    21   ar
    14    21    22   ar
    15    22    23   ar
    16    23    24    1
    17    23    25   ar
    18    25    26   ar
    19    18    19   ar
    20     7     8   ar
    21     8     9   ar
    22     9    13    1
    23    13    14    1
    24     9    10   ar
    25    10     5   ar
    26    19    15   ar
    27    26    20   ar
    28     1     4    1
@<TRIPOS>MOLECULE
*****
 26 28 0 0 0
SMALL
GASTEIGER

@<TRIPOS>ATOM
      1 N         143.5204  138.9184  158.4261 N.am    1  UNL1       -0.2777
      2 C         142.2548  138.1199  158.3234 C.2     1  UNL1        0.2842
      3 O         141.0711  138.4779  159.1725 O.2     1  UNL1       -0.2665
      4 H         144.2973  138.6835  157.8689 H       1  UNL1        0.1553
      5 C         143.2803  142.6038  159.8790 C.ar    1  UNL1        0.1430
      6 C         143.1984  141.4474  158.9272 C.ar    1  UNL1        0.0518
      7 C         143.6024  140.0749  159.3780 C.ar    1  UNL1        0.0567
      8 C         144.0882  139.8589  160.7805 C.ar    1  UNL1        0.0518
      9 C         144.1702  141.0153  161.7323 C.ar    1  UNL1        0.1430
     10 C         143.7662  142.3878  161.2815 C.ar    1  UNL1        0.0738
     11 C         141.4913  144.4799  159.7070 C.3     1  UNL1        0.2525
     12 O         142.8764  143.9762  159.4282 O.3     1  UNL1       -0.4713
     13 O         144.6561  140.7993  163.1349 O.3     1  UNL1       -0.4713
     14 C         145.7900  141.6220  163.6709 C.3     1  UNL1        0.2525
     15 C         142.1728  136.9635  157.3716 C.ar    1  UNL1        0.1986
     16 C         141.2065  136.8259  156.2325 C.ar    1  UNL1        0.0454
     17 C         141.4792  135.5190  155.5487 C.ar    1  UNL1        0.0408
     18 C         142.6140  134.8489  156.2651 C.ar    1  UNL1        0.1455
     19 O         143.0426  135.7416  157.3917 O.2     1  UNL1       -0.4489
     20 C         143.2146  133.5194  155.9162 C.ar    1  UNL1        0.0346
     21 C         142.7270  132.7688  154.7126 C.ar    1  UNL1        0.0039
     22 C         143.3276  131.4394  154.3636 C.ar    1  UNL1        0.0115
     23 C         144.4159  130.8605  155.2183 C.ar    1  UNL1        0.0577
     24 CL        145.0165  129.5311  154.8693 Cl      1  UNL1       -0.0822
     25 C         144.9036  131.6111  156.4219 C.ar    1  UNL1        0.0115
     26 C         144.3029  132.9406  156.7709 C.ar    1  UNL1        0.0039
@<TRIPOS>BOND
     1    11    12    1
     2    12     5    1
     3     5     6   ar
     4     6     7   ar
     5     7     1    1
     6     1     2   am
     7     2     3    2
     8     2    15    1
     9    15    16   ar
    10    16    17   ar
    11    17    18   ar
    12    18    20    1
    13    20    21   ar
    14    21    22   ar
    15    22    23   ar
    16    23    24    1
    17    23    25   ar
    18    25    26   ar
    19    18    19   ar
    20     7     8   ar
    21     8     9   ar
    22     9    13    1
    23    13    14    1
    24     9    10   ar
    25    10     5   ar
    26    19    15   ar
    27    26    20   ar
    28     1     4    1
