@<TRIPOS>MOLECULE
*****
 33 36 0 0 0
SMALL
GASTEIGER

@<TRIPOS>ATOM
      1 C         141.2861  141.8075  165.3051 C.ar    1  UNL1        0.0906
      2 C         141.0338  142.1266  166.7489 C.ar    1  UNL1        0.1496
      3 O         139.9511  143.1628  166.8122 O.2     1  UNL1       -0.4534
      4 C         139.5342  143.4841  165.4076 C.ar    1  UNL1        0.1454
      5 C         138.5100  144.4312  164.8565 C.ar    1  UNL1        0.0406
      6 C         138.3107  144.5407  163.3738 C.ar    1  UNL1        0.0395
      7 C         139.1358  143.7031  162.4423 C.ar    1  UNL1        0.1311
      8 O         138.9365  143.8126  160.9596 O.3     1  UNL1       -0.5058
      9 C         140.1600  142.7560  162.9935 C.ar    1  UNL1        0.0305
     10 C         140.3593  142.6465  164.4761 C.ar    1  UNL1        0.0421
     11 H         138.2966  144.4042  160.6153 H       1  UNL1        0.2922
     12 C         141.7402  141.5166  167.9231 C.ar    1  UNL1        0.0349
     13 C         142.7643  142.3112  168.6779 C.ar    1  UNL1        0.0061
     14 C         143.4707  141.7012  169.8522 C.ar    1  UNL1        0.0367
     15 C         143.1531  140.2965  170.2716 C.ar    1  UNL1        0.1337
     16 O         143.8595  139.6865  171.4459 O.3     1  UNL1       -0.5055
     17 C         142.1290  139.5019  169.5168 C.ar    1  UNL1        0.0367
     18 C         141.4226  140.1119  168.3426 C.ar    1  UNL1        0.0061
     19 H         144.4992  140.1829  171.9174 H       1  UNL1        0.2922
     20 C         144.6733  140.2949  163.8949 C.3     1  UNL1        0.1109
     21 N         143.6704  141.2800  164.4179 N.am    1  UNL1       -0.2991
     22 C         142.2890  140.8224  164.7820 C.2     1  UNL1        0.2490
     23 O         141.9107  139.3797  164.6230 O.2     1  UNL1       -0.2700
     24 H         143.9187  142.2270  164.5223 H       1  UNL1        0.1498
     25 C         140.9851  141.9183  162.0620 C.3     1  UNL1        0.0988
     26 N         142.3336  142.4001  161.6154 N.3     1  UNL1       -0.2917
     27 H         142.4283  142.1414  160.6333 H       1  UNL1        0.1236
     28 C         142.6807  143.8559  161.7151 C.3     1  UNL1        0.0960
     29 C         143.5146  144.3515  162.8594 C.3     1  UNL1        0.1029
     30 O         144.7995  143.6309  162.5766 O.3     1  UNL1       -0.3854
     31 C         143.9022  145.0973  164.1018 C.3     1  UNL1        0.0307
     32 C         142.5193  145.2441  163.5395 C.3     1  UNL1        0.0307
     33 H         144.6983  143.0913  161.7769 H       1  UNL1        0.2103
@<TRIPOS>BOND
     1    20    21    1
     2    21    22   am
     3    22    23    2
     4    22     1    1
     5     1     2   ar
     6     2    12    1
     7    12    13   ar
     8    13    14   ar
     9    14    15   ar
    10    15    16    1
    11    15    17   ar
    12    17    18   ar
    13     2     3   ar
    14     3     4   ar
    15     4     5   ar
    16     5     6   ar
    17     6     7   ar
    18     7     8    1
    19     7     9   ar
    20     9    25    1
    21    25    26    1
    22    26    28    1
    23    28    29    1
    24    29    30    1
    25    29    31    1
    26    31    32    1
    27     9    10   ar
    28    10     1   ar
    29    18    12   ar
    30    10     4   ar
    31    32    29    1
    32    21    24    1
    33    16    19    1
    34     8    11    1
    35    26    27    1
    36    30    33    1
@<TRIPOS>MOLECULE
*****
 33 36 0 0 0
SMALL
GASTEIGER

@<TRIPOS>ATOM
      1 C         142.3152  143.0346  165.3313 C.ar    1  UNL1        0.0906
      2 C         141.5163  142.5886  166.5199 C.ar    1  UNL1        0.1496
      3 O         140.1062  143.0660  166.3362 O.2     1  UNL1       -0.4534
      4 C         140.0336  143.8069  165.0340 C.ar    1  UNL1        0.1454
      5 C         138.9007  144.4968  164.3335 C.ar    1  UNL1        0.0406
      6 C         139.1331  145.1672  163.0120 C.ar    1  UNL1        0.0395
      7 C         140.4984  145.1478  162.3910 C.ar    1  UNL1        0.1311
      8 O         140.7307  145.8183  161.0694 O.3     1  UNL1       -0.5058
      9 C         141.6312  144.4580  163.0914 C.ar    1  UNL1        0.0305
     10 C         141.3989  143.7875  164.4129 C.ar    1  UNL1        0.0421
     11 H         140.0230  146.2493  160.6318 H       1  UNL1        0.2922
     12 C         142.0362  141.8032  167.6874 C.ar    1  UNL1        0.0349
     13 C         141.6825  140.3528  167.8328 C.ar    1  UNL1        0.0061
     14 C         142.2024  139.5674  169.0002 C.ar    1  UNL1        0.0367
     15 C         143.0760  140.2324  170.0222 C.ar    1  UNL1        0.1337
     16 O         143.5959  139.4470  171.1896 O.3     1  UNL1       -0.5055
     17 C         143.4297  141.6828  169.8768 C.ar    1  UNL1        0.0367
     18 C         142.9098  142.4682  168.7093 C.ar    1  UNL1        0.0061
     19 H         143.3750  138.5410  171.2804 H       1  UNL1        0.2922
     20 C         145.6633  141.3463  164.0312 C.3     1  UNL1        0.1109
     21 N         144.2042  141.6075  164.2612 N.am    1  UNL1       -0.2991
     22 C         143.7743  142.7734  165.1013 C.2     1  UNL1        0.2490
     23 O         144.8034  143.6781  165.7115 O.2     1  UNL1       -0.2700
     24 H         143.5288  141.0136  163.8607 H       1  UNL1        0.1498
     25 C         142.9965  144.4386  162.4703 C.3     1  UNL1        0.0988
     26 N         143.1801  143.9085  161.0792 N.3     1  UNL1       -0.2917
     27 H         144.1142  144.1873  160.7788 H       1  UNL1        0.1236
     28 C         143.0618  142.4366  160.8157 C.3     1  UNL1        0.0960
     29 C         141.7844  141.7178  161.1350 C.3     1  UNL1        0.1029
     30 O         142.2328  140.8987  162.3089 O.3     1  UNL1       -0.3854
     31 C         140.3514  141.2836  161.0465 C.3     1  UNL1        0.0307
     32 C         140.8925  142.2874  160.0719 C.3     1  UNL1        0.0307
     33 H         143.1685  141.0790  162.4905 H       1  UNL1        0.2103
@<TRIPOS>BOND
     1    20    21    1
     2    21    22   am
     3    22    23    2
     4    22     1    1
     5     1     2   ar
     6     2    12    1
     7    12    13   ar
     8    13    14   ar
     9    14    15   ar
    10    15    16    1
    11    15    17   ar
    12    17    18   ar
    13     2     3   ar
    14     3     4   ar
    15     4     5   ar
    16     5     6   ar
    17     6     7   ar
    18     7     8    1
    19     7     9   ar
    20     9    25    1
    21    25    26    1
    22    26    28    1
    23    28    29    1
    24    29    30    1
    25    29    31    1
    26    31    32    1
    27     9    10   ar
    28    10     1   ar
    29    18    12   ar
    30    10     4   ar
    31    32    29    1
    32    21    24    1
    33    16    19    1
    34     8    11    1
    35    26    27    1
    36    30    33    1
@<TRIPOS>MOLECULE
*****
 33 36 0 0 0
SMALL
GASTEIGER

@<TRIPOS>ATOM
      1 C         141.1365  141.1560  165.3817 C.ar    1  UNL1        0.0906
      2 C         141.0072  140.8260  166.8392 C.ar    1  UNL1        0.1496
      3 O         140.2119  139.5598  166.9590 O.2     1  UNL1       -0.4534
      4 C         139.8497  139.1073  165.5755 C.ar    1  UNL1        0.1454
      5 C         139.0734  137.9245  165.0774 C.ar    1  UNL1        0.0406
      6 C         138.8685  137.7281  163.6045 C.ar    1  UNL1        0.0395
      7 C         139.4399  138.7147  162.6297 C.ar    1  UNL1        0.1311
      8 O         139.2349  138.5183  161.1568 O.3     1  UNL1       -0.5058
      9 C         140.2162  139.8975  163.1278 C.ar    1  UNL1        0.0305
     10 C         140.4211  140.0938  164.6007 C.ar    1  UNL1        0.0421
     11 H         138.7500  137.7794  160.8456 H       1  UNL1        0.2922
     12 C         141.5738  141.6223  167.9772 C.ar    1  UNL1        0.0349
     13 C         143.0059  141.4368  168.3826 C.ar    1  UNL1        0.0061
     14 C         143.5725  142.2331  169.5205 C.ar    1  UNL1        0.0367
     15 C         142.7068  143.2149  170.2531 C.ar    1  UNL1        0.1337
     16 O         143.2734  144.0111  171.3911 O.3     1  UNL1       -0.5055
     17 C         141.2746  143.4003  169.8477 C.ar    1  UNL1        0.0367
     18 C         140.7081  142.6040  168.7098 C.ar    1  UNL1        0.0061
     19 H         144.1680  143.8953  171.6443 H       1  UNL1        0.2922
     20 C         141.8198  144.7867  163.9321 C.3     1  UNL1        0.1109
     21 N         141.1013  143.6024  164.5076 N.am    1  UNL1       -0.2991
     22 C         141.8550  142.3403  164.8063 C.2     1  UNL1        0.2490
     23 O         143.3271  142.2627  164.5294 O.2     1  UNL1       -0.2700
     24 H         140.1350  143.6534  164.6892 H       1  UNL1        0.1498
     25 C         140.7876  140.8840  162.1530 C.3     1  UNL1        0.0988
     26 N         139.9977  142.0987  161.7652 N.3     1  UNL1       -0.2917
     27 H         140.0620  142.1802  160.7505 H       1  UNL1        0.1236
     28 C         138.5420  142.1901  162.1154 C.3     1  UNL1        0.0960
     29 C         138.0613  143.2598  163.0507 C.3     1  UNL1        0.1029
     30 O         138.2590  144.4697  162.1863 O.3     1  UNL1       -0.3854
     31 C         137.5120  143.9094  164.2862 C.3     1  UNL1        0.0307
     32 C         137.6967  142.4214  164.2398 C.3     1  UNL1        0.0307
     33 H         138.6205  144.1983  161.3280 H       1  UNL1        0.2103
@<TRIPOS>BOND
     1    20    21    1
     2    21    22   am
     3    22    23    2
     4    22     1    1
     5     1     2   ar
     6     2    12    1
     7    12    13   ar
     8    13    14   ar
     9    14    15   ar
    10    15    16    1
    11    15    17   ar
    12    17    18   ar
    13     2     3   ar
    14     3     4   ar
    15     4     5   ar
    16     5     6   ar
    17     6     7   ar
    18     7     8    1
    19     7     9   ar
    20     9    25    1
    21    25    26    1
    22    26    28    1
    23    28    29    1
    24    29    30    1
    25    29    31    1
    26    31    32    1
    27     9    10   ar
    28    10     1   ar
    29    18    12   ar
    30    10     4   ar
    31    32    29    1
    32    21    24    1
    33    16    19    1
    34     8    11    1
    35    26    27    1
    36    30    33    1
@<TRIPOS>MOLECULE
*****
 33 36 0 0 0
SMALL
GASTEIGER

@<TRIPOS>ATOM
      1 C         141.3931  141.9483  165.3215 C.ar    1  UNL1        0.0906
      2 C         141.1230  142.2440  166.7670 C.ar    1  UNL1        0.1496
      3 O         140.0606  143.3009  166.8332 O.2     1  UNL1       -0.4534
      4 C         139.6741  143.6583  165.4287 C.ar    1  UNL1        0.1454
      5 C         138.6787  144.6370  164.8798 C.ar    1  UNL1        0.0406
      6 C         138.5068  144.7797  163.3965 C.ar    1  UNL1        0.0395
      7 C         139.3304  143.9437  162.4622 C.ar    1  UNL1        0.1311
      8 O         139.1584  144.0865  160.9789 O.3     1  UNL1       -0.5058
      9 C         140.3258  142.9651  163.0111 C.ar    1  UNL1        0.0305
     10 C         140.4977  142.8224  164.4943 C.ar    1  UNL1        0.0421
     11 H         138.5366  144.6978  160.6360 H       1  UNL1        0.2922
     12 C         141.7970  141.5966  167.9403 C.ar    1  UNL1        0.0349
     13 C         142.8494  142.3422  168.7061 C.ar    1  UNL1        0.0061
     14 C         143.5233  141.6948  169.8794 C.ar    1  UNL1        0.0367
     15 C         143.1449  140.3017  170.2869 C.ar    1  UNL1        0.1337
     16 O         143.8189  139.6543  171.4602 O.3     1  UNL1       -0.5055
     17 C         142.0925  139.5561  169.5211 C.ar    1  UNL1        0.0367
     18 C         141.4186  140.2035  168.3478 C.ar    1  UNL1        0.0061
     19 H         144.4763  140.1201  171.9385 H       1  UNL1        0.2922
     20 C         142.9320  138.5674  163.9242 C.3     1  UNL1        0.1109
     21 N         141.9405  139.5625  164.4503 N.am    1  UNL1       -0.2991
     22 C         142.3846  140.9532  164.7954 C.2     1  UNL1        0.2490
     23 O         143.8201  141.3486  164.6144 O.2     1  UNL1       -0.2700
     24 H         140.9983  139.3030  164.5691 H       1  UNL1        0.1498
     25 C         141.1493  142.1291  162.0767 C.3     1  UNL1        0.0988
     26 N         140.6694  140.7683  161.6672 N.3     1  UNL1       -0.2917
     27 H         141.2987  140.0918  162.0993 H       1  UNL1        0.1236
     28 C         139.2726  140.3342  161.9996 C.3     1  UNL1        0.0960
     29 C         139.0459  139.0903  162.8068 C.3     1  UNL1        0.1029
     30 O         138.8183  139.6959  164.1602 O.3     1  UNL1       -0.3854
     31 C         138.8982  137.6361  163.1440 C.3     1  UNL1        0.0307
     32 C         139.1947  138.0528  161.7338 C.3     1  UNL1        0.0307
     33 H         138.8852  140.6616  164.0977 H       1  UNL1        0.2103
@<TRIPOS>BOND
     1    20    21    1
     2    21    22   am
     3    22    23    2
     4    22     1    1
     5     1     2   ar
     6     2    12    1
     7    12    13   ar
     8    13    14   ar
     9    14    15   ar
    10    15    16    1
    11    15    17   ar
    12    17    18   ar
    13     2     3   ar
    14     3     4   ar
    15     4     5   ar
    16     5     6   ar
    17     6     7   ar
    18     7     8    1
    19     7     9   ar
    20     9    25    1
    21    25    26    1
    22    26    28    1
    23    28    29    1
    24    29    30    1
    25    29    31    1
    26    31    32    1
    27     9    10   ar
    28    10     1   ar
    29    18    12   ar
    30    10     4   ar
    31    32    29    1
    32    21    24    1
    33    16    19    1
    34     8    11    1
    35    26    27    1
    36    30    33    1
@<TRIPOS>MOLECULE
*****
 33 36 0 0 0
SMALL
GASTEIGER

@<TRIPOS>ATOM
      1 C         141.4399  141.5332  165.1660 C.ar    1  UNL1        0.0906
      2 C         141.9359  141.7867  166.5587 C.ar    1  UNL1        0.1496
      3 O         143.0419  142.7969  166.4800 O.2     1  UNL1       -0.4534
      4 C         143.2295  143.1678  165.0387 C.ar    1  UNL1        0.1454
      5 C         144.1739  144.1157  164.3609 C.ar    1  UNL1        0.0406
      6 C         144.1281  144.2826  162.8710 C.ar    1  UNL1        0.0395
      7 C         143.1380  143.5015  162.0588 C.ar    1  UNL1        0.1311
      8 O         143.0924  143.6684  160.5688 O.3     1  UNL1       -0.5058
      9 C         142.1936  142.5535  162.7366 C.ar    1  UNL1        0.0305
     10 C         142.2394  142.3867  164.2266 C.ar    1  UNL1        0.0421
     11 H         143.6823  144.2606  160.1454 H       1  UNL1        0.2922
     12 C         141.4171  141.1431  167.8103 C.ar    1  UNL1        0.0349
     13 C         142.2380  140.1043  168.5152 C.ar    1  UNL1        0.0061
     14 C         141.7191  139.4606  169.7668 C.ar    1  UNL1        0.0367
     15 C         140.3793  139.8557  170.3135 C.ar    1  UNL1        0.1337
     16 O         139.8605  139.2121  171.5651 O.3     1  UNL1       -0.5055
     17 C         139.5584  140.8945  169.6085 C.ar    1  UNL1        0.0367
     18 C         140.0773  141.5382  168.3569 C.ar    1  UNL1        0.0061
     19 H         140.3733  138.5632  172.0054 H       1  UNL1        0.2922
     20 C         139.5568  138.2329  164.0201 C.3     1  UNL1        0.1109
     21 N         140.6588  139.1747  164.4058 N.am    1  UNL1       -0.2991
     22 C         140.3379  140.5914  164.7803 C.2     1  UNL1        0.2490
     23 O         138.9152  141.0662  164.7691 O.2     1  UNL1       -0.2700
     24 H         141.5926  138.8630  164.4131 H       1  UNL1        0.1498
     25 C         141.2035  141.7725  161.9245 C.3     1  UNL1        0.0988
     26 N         139.7812  142.2382  161.8254 N.3     1  UNL1       -0.2917
     27 H         139.2351  141.6533  162.4579 H       1  UNL1        0.1236
     28 C         139.4343  143.6622  162.1445 C.3     1  UNL1        0.0960
     29 C         138.7291  143.9932  163.4263 C.3     1  UNL1        0.1029
     30 O         137.4865  143.1695  163.2603 O.3     1  UNL1       -0.3854
     31 C         138.4554  144.6104  164.7659 C.3     1  UNL1        0.0307
     32 C         139.7267  144.9319  164.0375 C.3     1  UNL1        0.0307
     33 H         137.5217  142.6984  162.4131 H       1  UNL1        0.2103
@<TRIPOS>BOND
     1    20    21    1
     2    21    22   am
     3    22    23    2
     4    22     1    1
     5     1     2   ar
     6     2    12    1
     7    12    13   ar
     8    13    14   ar
     9    14    15   ar
    10    15    16    1
    11    15    17   ar
    12    17    18   ar
    13     2     3   ar
    14     3     4   ar
    15     4     5   ar
    16     5     6   ar
    17     6     7   ar
    18     7     8    1
    19     7     9   ar
    20     9    25    1
    21    25    26    1
    22    26    28    1
    23    28    29    1
    24    29    30    1
    25    29    31    1
    26    31    32    1
    27     9    10   ar
    28    10     1   ar
    29    18    12   ar
    30    10     4   ar
    31    32    29    1
    32    21    24    1
    33    16    19    1
    34     8    11    1
    35    26    27    1
    36    30    33    1
@<TRIPOS>MOLECULE
*****
 33 36 0 0 0
SMALL
GASTEIGER

@<TRIPOS>ATOM
      1 C         141.3607  141.5015  164.8632 C.ar    1  UNL1        0.0906
      2 C         142.0285  142.4817  165.7814 C.ar    1  UNL1        0.1496
      3 O         142.7275  143.5056  164.9370 O.2     1  UNL1       -0.4534
      4 C         142.4916  143.1583  163.4970 C.ar    1  UNL1        0.1454
      5 C         142.9369  143.8098  162.2214 C.ar    1  UNL1        0.0406
      6 C         142.5375  143.2227  160.9002 C.ar    1  UNL1        0.0395
      7 C         141.6927  141.9840  160.8545 C.ar    1  UNL1        0.1311
      8 O         141.2933  141.3969  159.5332 O.3     1  UNL1       -0.5058
      9 C         141.2474  141.3325  162.1301 C.ar    1  UNL1        0.0305
     10 C         141.6469  141.9196  163.4513 C.ar    1  UNL1        0.0421
     11 H         141.5714  141.8039  158.7364 H       1  UNL1        0.2922
     12 C         142.0020  142.4445  167.2807 C.ar    1  UNL1        0.0349
     13 C         140.7082  142.6427  168.0131 C.ar    1  UNL1        0.0061
     14 C         140.6817  142.6055  169.5124 C.ar    1  UNL1        0.0367
     15 C         141.9491  142.3701  170.2793 C.ar    1  UNL1        0.1337
     16 O         141.9226  142.3329  171.7786 O.3     1  UNL1       -0.5055
     17 C         143.2430  142.1718  169.5469 C.ar    1  UNL1        0.0367
     18 C         143.2695  142.2090  168.0476 C.ar    1  UNL1        0.0061
     19 H         141.1144  142.4567  172.2361 H       1  UNL1        0.2922
     20 C         138.2417  139.2184  165.7633 C.3     1  UNL1        0.1109
     21 N         139.0533  140.4080  165.3434 N.am    1  UNL1       -0.2991
     22 C         140.5491  140.3119  165.2830 C.2     1  UNL1        0.2490
     23 O         141.2331  139.0263  165.6425 O.2     1  UNL1       -0.2700
     24 H         138.6043  141.2518  165.1075 H       1  UNL1        0.1498
     25 C         140.4027  140.0938  162.0845 C.3     1  UNL1        0.0988
     26 N         138.9073  140.2066  162.0521 N.3     1  UNL1       -0.2917
     27 H         138.5741  139.9733  162.9875 H       1  UNL1        0.1236
     28 C         138.2612  141.5064  161.6739 C.3     1  UNL1        0.0960
     29 C         137.7023  142.4037  162.7382 C.3     1  UNL1        0.1029
     30 O         136.7155  141.4701  163.3743 O.3     1  UNL1       -0.3854
     31 C         137.4862  143.6253  163.5815 C.3     1  UNL1        0.0307
     32 C         138.4951  143.6489  162.4716 C.3     1  UNL1        0.0307
     33 H         136.7427  140.6130  162.9210 H       1  UNL1        0.2103
@<TRIPOS>BOND
     1    20    21    1
     2    21    22   am
     3    22    23    2
     4    22     1    1
     5     1     2   ar
     6     2    12    1
     7    12    13   ar
     8    13    14   ar
     9    14    15   ar
    10    15    16    1
    11    15    17   ar
    12    17    18   ar
    13     2     3   ar
    14     3     4   ar
    15     4     5   ar
    16     5     6   ar
    17     6     7   ar
    18     7     8    1
    19     7     9   ar
    20     9    25    1
    21    25    26    1
    22    26    28    1
    23    28    29    1
    24    29    30    1
    25    29    31    1
    26    31    32    1
    27     9    10   ar
    28    10     1   ar
    29    18    12   ar
    30    10     4   ar
    31    32    29    1
    32    21    24    1
    33    16    19    1
    34     8    11    1
    35    26    27    1
    36    30    33    1
@<TRIPOS>MOLECULE
*****
 33 36 0 0 0
SMALL
GASTEIGER

@<TRIPOS>ATOM
      1 C         140.2647  141.5497  165.6103 C.ar    1  UNL1        0.0906
      2 C         140.7545  140.9744  166.9061 C.ar    1  UNL1        0.1496
      3 O         140.4792  139.5000  166.8920 O.2     1  UNL1       -0.4534
      4 C         139.8193  139.1640  165.5875 C.ar    1  UNL1        0.1454
      5 C         139.3219  137.8683  165.0187 C.ar    1  UNL1        0.0406
      6 C         138.6920  137.8394  163.6577 C.ar    1  UNL1        0.0395
      7 C         138.5594  139.1062  162.8656 C.ar    1  UNL1        0.1311
      8 O         137.9295  139.0773  161.5045 O.3     1  UNL1       -0.5058
      9 C         139.0568  140.4020  163.4344 C.ar    1  UNL1        0.0305
     10 C         139.6867  140.4309  164.7954 C.ar    1  UNL1        0.0421
     11 H         137.6188  138.2678  161.1492 H       1  UNL1        0.2922
     12 C         141.4054  141.7393  168.0203 C.ar    1  UNL1        0.0349
     13 C         142.8645  141.5469  168.3097 C.ar    1  UNL1        0.0061
     14 C         143.5154  142.3117  169.4239 C.ar    1  UNL1        0.0367
     15 C         142.7071  143.2689  170.2487 C.ar    1  UNL1        0.1337
     16 O         143.3579  144.0337  171.3629 O.3     1  UNL1       -0.5055
     17 C         141.2479  143.4613  169.9593 C.ar    1  UNL1        0.0367
     18 C         140.5971  142.6965  168.8451 C.ar    1  UNL1        0.0061
     19 H         144.2694  143.9136  171.5436 H       1  UNL1        0.2922
     20 C         141.5649  144.9166  163.9598 C.3     1  UNL1        0.1109
     21 N         141.4899  143.4755  164.3689 N.am    1  UNL1       -0.2991
     22 C         140.3397  142.9909  165.2012 C.2     1  UNL1        0.2490
     23 O         139.2648  143.9476  165.6242 O.2     1  UNL1       -0.2700
     24 H         142.1955  142.8476  164.0912 H       1  UNL1        0.1498
     25 C         138.9242  141.6688  162.6422 C.3     1  UNL1        0.0988
     26 N         140.0908  142.1859  161.8538 N.3     1  UNL1       -0.2917
     27 H         140.6664  142.7263  162.4996 H       1  UNL1        0.1236
     28 C         141.0081  141.2266  161.1550 C.3     1  UNL1        0.0960
     29 C         142.4900  141.3138  161.3707 C.3     1  UNL1        0.1029
     30 O         142.5472  141.1389  162.8594 O.3     1  UNL1       -0.3854
     31 C         143.9520  141.4617  161.0694 C.3     1  UNL1        0.0307
     32 C         142.9473  141.5189  159.9569 C.3     1  UNL1        0.0307
     33 H         141.6483  141.0285  163.2068 H       1  UNL1        0.2103
@<TRIPOS>BOND
     1    20    21    1
     2    21    22   am
     3    22    23    2
     4    22     1    1
     5     1     2   ar
     6     2    12    1
     7    12    13   ar
     8    13    14   ar
     9    14    15   ar
    10    15    16    1
    11    15    17   ar
    12    17    18   ar
    13     2     3   ar
    14     3     4   ar
    15     4     5   ar
    16     5     6   ar
    17     6     7   ar
    18     7     8    1
    19     7     9   ar
    20     9    25    1
    21    25    26    1
    22    26    28    1
    23    28    29    1
    24    29    30    1
    25    29    31    1
    26    31    32    1
    27     9    10   ar
    28    10     1   ar
    29    18    12   ar
    30    10     4   ar
    31    32    29    1
    32    21    24    1
    33    16    19    1
    34     8    11    1
    35    26    27    1
    36    30    33    1
@<TRIPOS>MOLECULE
*****
 33 36 0 0 0
SMALL
GASTEIGER

@<TRIPOS>ATOM
      1 C         140.7898  141.1503  165.1082 C.ar    1  UNL1        0.0906
      2 C         141.5025  142.2416  165.8506 C.ar    1  UNL1        0.1496
      3 O         142.0060  143.2340  164.8448 O.2     1  UNL1       -0.4534
      4 C         141.6044  142.7561  163.4809 C.ar    1  UNL1        0.1454
      5 C         141.8261  143.3272  162.1117 C.ar    1  UNL1        0.0406
      6 C         141.2961  142.6104  160.9053 C.ar    1  UNL1        0.0395
      7 C         140.5445  141.3226  161.0681 C.ar    1  UNL1        0.1311
      8 O         140.0145  140.6058  159.8617 O.3     1  UNL1       -0.5058
      9 C         140.3228  140.7515  162.4373 C.ar    1  UNL1        0.0305
     10 C         140.8528  141.4682  163.6437 C.ar    1  UNL1        0.0421
     11 H         140.1530  140.9626  159.0064 H       1  UNL1        0.2922
     12 C         141.6805  142.3257  167.3376 C.ar    1  UNL1        0.0349
     13 C         140.5380  142.7616  168.2063 C.ar    1  UNL1        0.0061
     14 C         140.7160  142.8457  169.6933 C.ar    1  UNL1        0.0367
     15 C         142.0365  142.4939  170.3117 C.ar    1  UNL1        0.1337
     16 O         142.2145  142.5779  171.7987 O.3     1  UNL1       -0.5055
     17 C         143.1790  142.0579  169.4430 C.ar    1  UNL1        0.0367
     18 C         143.0010  141.9738  167.9560 C.ar    1  UNL1        0.0061
     19 H         141.5008  142.8503  172.3413 H       1  UNL1        0.2922
     20 C         138.0135  138.7983  166.6928 C.3     1  UNL1        0.1109
     21 N         138.6734  139.9971  166.0785 N.am    1  UNL1       -0.2991
     22 C         140.1299  139.9514  165.7226 C.2     1  UNL1        0.2490
     23 O         140.9264  138.7070  165.9810 O.2     1  UNL1       -0.2700
     24 H         138.1506  140.8139  165.9089 H       1  UNL1        0.1498
     25 C         139.5712  139.4636  162.6001 C.3     1  UNL1        0.0988
     26 N         140.1158  138.1974  162.0086 N.3     1  UNL1       -0.2917
     27 H         140.3833  138.4124  161.0481 H       1  UNL1        0.1236
     28 C         141.2926  137.5182  162.6441 C.3     1  UNL1        0.0960
     29 C         142.6660  138.1031  162.4962 C.3     1  UNL1        0.1029
     30 O         142.9628  138.4364  163.9283 O.3     1  UNL1       -0.3854
     31 C         143.9363  138.5721  161.8510 C.3     1  UNL1        0.0307
     32 C         142.8461  137.9728  161.0128 C.3     1  UNL1        0.0307
     33 H         142.2084  138.1820  164.4826 H       1  UNL1        0.2103
@<TRIPOS>BOND
     1    20    21    1
     2    21    22   am
     3    22    23    2
     4    22     1    1
     5     1     2   ar
     6     2    12    1
     7    12    13   ar
     8    13    14   ar
     9    14    15   ar
    10    15    16    1
    11    15    17   ar
    12    17    18   ar
    13     2     3   ar
    14     3     4   ar
    15     4     5   ar
    16     5     6   ar
    17     6     7   ar
    18     7     8    1
    19     7     9   ar
    20     9    25    1
    21    25    26    1
    22    26    28    1
    23    28    29    1
    24    29    30    1
    25    29    31    1
    26    31    32    1
    27     9    10   ar
    28    10     1   ar
    29    18    12   ar
    30    10     4   ar
    31    32    29    1
    32    21    24    1
    33    16    19    1
    34     8    11    1
    35    26    27    1
    36    30    33    1
@<TRIPOS>MOLECULE
*****
 33 36 0 0 0
SMALL
GASTEIGER

@<TRIPOS>ATOM
      1 C         139.6603  140.7433  165.0865 C.ar    1  UNL1        0.0906
      2 C         139.9354  139.7115  166.1399 C.ar    1  UNL1        0.1496
      3 O         139.5878  138.3668  165.5734 O.2     1  UNL1       -0.4534
      4 C         139.0980  138.5675  164.1699 C.ar    1  UNL1        0.1454
      5 C         138.6169  137.6026  163.1271 C.ar    1  UNL1        0.0406
      6 C         138.1806  138.1066  161.7833 C.ar    1  UNL1        0.0395
      7 C         138.2254  139.5754  161.4825 C.ar    1  UNL1        0.1311
      8 O         137.7891  140.0793  160.1386 O.3     1  UNL1       -0.5058
      9 C         138.7064  140.5403  162.5253 C.ar    1  UNL1        0.0305
     10 C         139.1427  140.0363  163.8690 C.ar    1  UNL1        0.0421
     11 H         137.4886  139.4766  159.4872 H       1  UNL1        0.2922
     12 C         140.4650  139.9776  167.5178 C.ar    1  UNL1        0.0349
     13 C         139.5145  140.1961  168.6574 C.ar    1  UNL1        0.0061
     14 C         140.0441  140.4623  170.0353 C.ar    1  UNL1        0.0367
     15 C         141.5242  140.5099  170.2737 C.ar    1  UNL1        0.1337
     16 O         142.0539  140.7760  171.6516 O.3     1  UNL1       -0.5055
     17 C         142.4747  140.2913  169.1341 C.ar    1  UNL1        0.0367
     18 C         141.9451  140.0252  167.7562 C.ar    1  UNL1        0.0061
     19 H         141.4601  140.9125  172.3635 H       1  UNL1        0.2922
     20 C         138.8890  144.6187  165.4568 C.3     1  UNL1        0.1109
     21 N         138.6828  143.1395  165.3172 N.am    1  UNL1       -0.2991
     22 C         139.8665  142.2225  165.2262 C.2     1  UNL1        0.2490
     23 O         141.2562  142.7848  165.2748 O.2     1  UNL1       -0.2700
     24 H         137.7706  142.7705  165.2853 H       1  UNL1        0.1498
     25 C         138.7512  142.0091  162.2244 C.3     1  UNL1        0.0988
     26 N         139.5644  142.5136  161.0694 N.3     1  UNL1       -0.2917
     27 H         139.0153  142.3447  160.2266 H       1  UNL1        0.1236
     28 C         139.9941  143.9501  161.0254 C.3     1  UNL1        0.0960
     29 C         140.8952  144.4964  162.0930 C.3     1  UNL1        0.1029
     30 O         141.7991  143.3172  162.2995 O.3     1  UNL1       -0.3854
     31 C         141.4824  145.4522  163.0889 C.3     1  UNL1        0.0307
     32 C         140.3043  145.8652  162.2572 C.3     1  UNL1        0.0307
     33 H         141.5333  142.5980  161.7053 H       1  UNL1        0.2103
@<TRIPOS>BOND
     1    20    21    1
     2    21    22   am
     3    22    23    2
     4    22     1    1
     5     1     2   ar
     6     2    12    1
     7    12    13   ar
     8    13    14   ar
     9    14    15   ar
    10    15    16    1
    11    15    17   ar
    12    17    18   ar
    13     2     3   ar
    14     3     4   ar
    15     4     5   ar
    16     5     6   ar
    17     6     7   ar
    18     7     8    1
    19     7     9   ar
    20     9    25    1
    21    25    26    1
    22    26    28    1
    23    28    29    1
    24    29    30    1
    25    29    31    1
    26    31    32    1
    27     9    10   ar
    28    10     1   ar
    29    18    12   ar
    30    10     4   ar
    31    32    29    1
    32    21    24    1
    33    16    19    1
    34     8    11    1
    35    26    27    1
    36    30    33    1
