@<TRIPOS>MOLECULE
*****
 25 28 0 0 0
SMALL
GASTEIGER

@<TRIPOS>ATOM
      1 N         138.7363  141.2799  162.9545 N.am    1  UNL1       -0.2413
      2 C         138.1904  141.4586  161.5688 C.3     1  UNL1        0.1212
      3 C         138.2209  142.9227  161.2438 C.3     1  UNL1        0.1169
      4 N         138.7856  143.6488  162.4287 N.am    1  UNL1       -0.2606
      5 C         139.1042  142.6335  163.4859 C.2     1  UNL1        0.3111
      6 O         139.6881  142.9213  164.8373 O.2     1  UNL1       -0.2520
      7 C         138.3056  138.4427  165.6957 C.ar    1  UNL1        0.0697
      8 C         139.1905  137.3695  165.1344 C.ar    1  UNL1        0.0104
      9 C         139.9240  137.5998  163.8464 C.ar    1  UNL1        0.0020
     10 C         139.7727  138.9032  163.1197 C.ar    1  UNL1        0.0150
     11 C         138.8877  139.9764  163.6811 C.ar    1  UNL1        0.0560
     12 C         138.1542  139.7462  164.9691 C.ar    1  UNL1        0.0252
     13 N         136.8385  137.9822  168.2717 N.1     1  UNL1       -0.1908
     14 C         137.5720  138.2124  166.9837 C.1     1  UNL1        0.1005
     15 C         138.9951  145.1301  162.5372 C.3     1  UNL1        0.1123
     16 C         140.3722  145.7058  162.3885 C.3     1  UNL1        0.0944
     17 N         141.5753  144.8525  162.6614 N.3     1  UNL1       -0.2637
     18 C         142.2853  144.7243  163.9764 C.3     1  UNL1        0.0992
     19 C         143.4285  143.7702  163.7950 C.ar    1  UNL1       -0.0088
     20 C         144.4721  143.2620  164.7449 C.ar    1  UNL1       -0.0032
     21 C         145.5122  142.2924  164.2677 C.ar    1  UNL1       -0.0003
     22 C         145.5087  141.8309  162.8404 C.ar    1  UNL1       -0.0003
     23 C         144.4651  142.3391  161.8904 C.ar    1  UNL1       -0.0032
     24 C         143.4249  143.3088  162.3677 C.ar    1  UNL1       -0.0088
     25 C         142.2796  143.9777  161.6671 C.3     1  UNL1        0.0992
@<TRIPOS>BOND
     1    13    14    3
     2    14     7    1
     3     7     8   ar
     4     8     9   ar
     5     9    10   ar
     6    10    11   ar
     7    11     1    1
     8     1     2    1
     9     2     3    1
    10     3     4    1
    11     4    15    1
    12    15    16    1
    13    16    17    1
    14    17    18    1
    15    18    19    1
    16    19    20   ar
    17    20    21   ar
    18    21    22   ar
    19    22    23   ar
    20    23    24   ar
    21    24    25    1
    22     4     5   am
    23     5     6    2
    24    11    12   ar
    25    12     7   ar
    26     5     1   am
    27    25    17    1
    28    24    19   ar
@<TRIPOS>MOLECULE
*****
 25 28 0 0 0
SMALL
GASTEIGER

@<TRIPOS>ATOM
      1 N         139.7030  139.9220  165.4171 N.am    1  UNL1       -0.2413
      2 C         139.2278  138.8414  164.4916 C.3     1  UNL1        0.1212
      3 C         138.2754  139.4574  163.5100 C.3     1  UNL1        0.1169
      4 N         138.1619  140.9188  163.8291 N.am    1  UNL1       -0.2606
      5 C         139.0442  141.2058  165.0077 C.2     1  UNL1        0.3111
      6 O         139.2344  142.5422  165.6620 O.2     1  UNL1       -0.2520
      7 C         141.2509  140.0181  169.0701 C.ar    1  UNL1        0.0697
      8 C         142.5967  139.4030  168.8240 C.ar    1  UNL1        0.0104
      9 C         142.9779  138.9609  167.4422 C.ar    1  UNL1        0.0020
     10 C         142.0133  139.1339  166.3065 C.ar    1  UNL1        0.0150
     11 C         140.6676  139.7490  166.5527 C.ar    1  UNL1        0.0560
     12 C         140.2864  140.1910  167.9344 C.ar    1  UNL1        0.0252
     13 N         140.4885  140.9022  171.8336 N.1     1  UNL1       -0.1908
     14 C         140.8697  140.4601  170.4519 C.1     1  UNL1        0.1005
     15 C         137.3148  141.9177  163.0978 C.3     1  UNL1        0.1123
     16 C         137.9523  142.8938  162.1541 C.3     1  UNL1        0.0944
     17 N         139.3855  143.2937  162.3439 N.3     1  UNL1       -0.2637
     18 C         140.5795  142.5998  161.7584 C.3     1  UNL1        0.0992
     19 C         141.8083  143.3350  162.2052 C.ar    1  UNL1       -0.0088
     20 C         143.2667  143.1072  161.9387 C.ar    1  UNL1       -0.0032
     21 C         144.2906  144.0277  162.5339 C.ar    1  UNL1       -0.0003
     22 C         143.8560  145.1761  163.3956 C.ar    1  UNL1       -0.0003
     23 C         142.3976  145.4039  163.6620 C.ar    1  UNL1       -0.0032
     24 C         141.3737  144.4833  163.0668 C.ar    1  UNL1       -0.0088
     25 C         139.8764  144.4578  163.1525 C.3     1  UNL1        0.0992
@<TRIPOS>BOND
     1    13    14    3
     2    14     7    1
     3     7     8   ar
     4     8     9   ar
     5     9    10   ar
     6    10    11   ar
     7    11     1    1
     8     1     2    1
     9     2     3    1
    10     3     4    1
    11     4    15    1
    12    15    16    1
    13    16    17    1
    14    17    18    1
    15    18    19    1
    16    19    20   ar
    17    20    21   ar
    18    21    22   ar
    19    22    23   ar
    20    23    24   ar
    21    24    25    1
    22     4     5   am
    23     5     6    2
    24    11    12   ar
    25    12     7   ar
    26     5     1   am
    27    25    17    1
    28    24    19   ar
@<TRIPOS>MOLECULE
*****
 25 28 0 0 0
SMALL
GASTEIGER

@<TRIPOS>ATOM
      1 N         140.5998  139.2496  166.1327 N.am    1  UNL1       -0.2413
      2 C         141.7588  138.6652  165.3809 C.3     1  UNL1        0.1212
      3 C         141.2235  137.9996  164.1479 C.3     1  UNL1        0.1169
      4 N         139.7335  138.1726  164.1376 N.am    1  UNL1       -0.2606
      5 C         139.3481  138.9452  165.3642 C.2     1  UNL1        0.3111
      6 O         137.9554  139.3434  165.7540 O.2     1  UNL1       -0.2520
      7 C         142.0251  141.4687  169.0981 C.ar    1  UNL1        0.0697
      8 C         140.8367  141.5177  170.0119 C.ar    1  UNL1        0.0104
      9 C         139.5693  140.8106  169.6327 C.ar    1  UNL1        0.0020
     10 C         139.4903  140.0546  168.3396 C.ar    1  UNL1        0.0150
     11 C         140.6787  140.0056  167.4257 C.ar    1  UNL1        0.0560
     12 C         141.9461  140.7126  167.8050 C.ar    1  UNL1        0.0252
     13 N         144.5599  142.8828  169.8565 N.1     1  UNL1       -0.1908
     14 C         143.2925  142.1757  169.4773 C.1     1  UNL1        0.1005
     15 C         138.7939  137.6627  163.0854 C.3     1  UNL1        0.1123
     16 C         138.0914  138.6269  162.1761 C.3     1  UNL1        0.0944
     17 N         138.3949  140.0935  162.2597 N.3     1  UNL1       -0.2637
     18 C         137.4810  141.1537  162.7991 C.3     1  UNL1        0.0992
     19 C         138.1869  142.4729  162.6913 C.ar    1  UNL1       -0.0088
     20 C         137.7746  143.8654  163.0667 C.ar    1  UNL1       -0.0032
     21 C         138.7125  145.0130  162.8361 C.ar    1  UNL1       -0.0003
     22 C         140.0626  144.7682  162.2300 C.ar    1  UNL1       -0.0003
     23 C         140.4748  143.3757  161.8546 C.ar    1  UNL1       -0.0032
     24 C         139.5369  142.2280  162.0853 C.ar    1  UNL1       -0.0088
     25 C         139.6655  140.7575  161.8185 C.3     1  UNL1        0.0992
@<TRIPOS>BOND
     1    13    14    3
     2    14     7    1
     3     7     8   ar
     4     8     9   ar
     5     9    10   ar
     6    10    11   ar
     7    11     1    1
     8     1     2    1
     9     2     3    1
    10     3     4    1
    11     4    15    1
    12    15    16    1
    13    16    17    1
    14    17    18    1
    15    18    19    1
    16    19    20   ar
    17    20    21   ar
    18    21    22   ar
    19    22    23   ar
    20    23    24   ar
    21    24    25    1
    22     4     5   am
    23     5     6    2
    24    11    12   ar
    25    12     7   ar
    26     5     1   am
    27    25    17    1
    28    24    19   ar
@<TRIPOS>MOLECULE
*****
 25 28 0 0 0
SMALL
GASTEIGER

@<TRIPOS>ATOM
      1 N         142.0468  139.3311  164.7793 N.am    1  UNL1       -0.2413
      2 C         142.4328  138.5122  163.5833 C.3     1  UNL1        0.1212
      3 C         143.7921  138.9600  163.1340 C.3     1  UNL1        0.1169
      4 N         144.2461  140.0558  164.0523 N.am    1  UNL1       -0.2606
      5 C         143.1675  140.2851  165.0691 C.2     1  UNL1        0.3111
      6 O         143.2032  141.2916  166.1807 O.2     1  UNL1       -0.2520
      7 C         139.3705  139.7166  167.6842 C.ar    1  UNL1        0.0697
      8 C         138.2019  138.9863  167.0917 C.ar    1  UNL1        0.0104
      9 C         138.3149  138.3709  165.7284 C.ar    1  UNL1        0.0020
     10 C         139.5966  138.4859  164.9576 C.ar    1  UNL1        0.0150
     11 C         140.7652  139.2161  165.5501 C.ar    1  UNL1        0.0560
     12 C         140.6521  139.8315  166.9134 C.ar    1  UNL1        0.0252
     13 N         139.1444  140.9473  170.4108 N.1     1  UNL1       -0.1908
     14 C         139.2575  140.3319  169.0475 C.1     1  UNL1        0.1005
     15 C         145.5499  140.7928  163.9685 C.3     1  UNL1        0.1123
     16 C         145.6745  141.9983  163.0846 C.3     1  UNL1        0.0944
     17 N         144.4623  142.8216  162.7638 N.3     1  UNL1       -0.2637
     18 C         143.7648  142.8841  161.4374 C.3     1  UNL1        0.0992
     19 C         142.6063  143.8281  161.5669 C.ar    1  UNL1       -0.0088
     20 C         141.5658  144.2807  160.5858 C.ar    1  UNL1       -0.0032
     21 C         140.5068  145.2541  161.0113 C.ar    1  UNL1       -0.0003
     22 C         140.4884  145.7749  162.4178 C.ar    1  UNL1       -0.0003
     23 C         141.5288  145.3224  163.3989 C.ar    1  UNL1       -0.0032
     24 C         142.5878  144.3490  162.9734 C.ar    1  UNL1       -0.0088
     25 C         143.7349  143.7269  163.7132 C.3     1  UNL1        0.0992
@<TRIPOS>BOND
     1    13    14    3
     2    14     7    1
     3     7     8   ar
     4     8     9   ar
     5     9    10   ar
     6    10    11   ar
     7    11     1    1
     8     1     2    1
     9     2     3    1
    10     3     4    1
    11     4    15    1
    12    15    16    1
    13    16    17    1
    14    17    18    1
    15    18    19    1
    16    19    20   ar
    17    20    21   ar
    18    21    22   ar
    19    22    23   ar
    20    23    24   ar
    21    24    25    1
    22     4     5   am
    23     5     6    2
    24    11    12   ar
    25    12     7   ar
    26     5     1   am
    27    25    17    1
    28    24    19   ar
@<TRIPOS>MOLECULE
*****
 25 28 0 0 0
SMALL
GASTEIGER

@<TRIPOS>ATOM
      1 N         141.2330  139.4564  166.7573 N.am    1  UNL1       -0.2413
      2 C         142.2322  138.9944  165.7385 C.3     1  UNL1        0.1212
      3 C         141.4823  138.3322  164.6207 C.3     1  UNL1        0.1169
      4 N         140.0195  138.3851  164.9489 N.am    1  UNL1       -0.2606
      5 C         139.8655  139.0799  166.2693 C.2     1  UNL1        0.3111
      6 O         138.5712  139.3506  166.9775 O.2     1  UNL1       -0.2520
      7 C         141.2186  142.2061  169.6189 C.ar    1  UNL1        0.0697
      8 C         142.1730  141.5965  170.6025 C.ar    1  UNL1        0.0104
      9 C         142.8141  140.2736  170.3044 C.ar    1  UNL1        0.0020
     10 C         142.5008  139.5602  169.0227 C.ar    1  UNL1        0.0150
     11 C         141.5464  140.1697  168.0390 C.ar    1  UNL1        0.0560
     12 C         140.9053  141.4927  168.3372 C.ar    1  UNL1        0.0252
     13 N         139.9364  144.8519  170.2152 N.1     1  UNL1       -0.1908
     14 C         140.5775  143.5290  169.9170 C.1     1  UNL1        0.1005
     15 C         138.9063  137.8391  164.1048 C.3     1  UNL1        0.1123
     16 C         138.4438  138.5937  162.8937 C.3     1  UNL1        0.0944
     17 N         138.6484  140.0774  162.8112 N.3     1  UNL1       -0.2637
     18 C         139.8397  140.7717  162.2206 C.3     1  UNL1        0.0992
     19 C         139.6253  142.2507  162.3492 C.ar    1  UNL1       -0.0088
     20 C         140.4644  143.4256  161.9427 C.ar    1  UNL1       -0.0032
     21 C         139.9796  144.8204  162.2062 C.ar    1  UNL1       -0.0003
     22 C         138.6557  145.0403  162.8762 C.ar    1  UNL1       -0.0003
     23 C         137.8166  143.8653  163.2827 C.ar    1  UNL1       -0.0032
     24 C         138.3014  142.4705  163.0192 C.ar    1  UNL1       -0.0088
     25 C         137.6977  141.1274  163.3047 C.3     1  UNL1        0.0992
@<TRIPOS>BOND
     1    13    14    3
     2    14     7    1
     3     7     8   ar
     4     8     9   ar
     5     9    10   ar
     6    10    11   ar
     7    11     1    1
     8     1     2    1
     9     2     3    1
    10     3     4    1
    11     4    15    1
    12    15    16    1
    13    16    17    1
    14    17    18    1
    15    18    19    1
    16    19    20   ar
    17    20    21   ar
    18    21    22   ar
    19    22    23   ar
    20    23    24   ar
    21    24    25    1
    22     4     5   am
    23     5     6    2
    24    11    12   ar
    25    12     7   ar
    26     5     1   am
    27    25    17    1
    28    24    19   ar
@<TRIPOS>MOLECULE
*****
 25 28 0 0 0
SMALL
GASTEIGER

@<TRIPOS>ATOM
      1 N         143.2258  140.7138  165.9312 N.am    1  UNL1       -0.2413
      2 C         143.2512  139.5264  165.0150 C.3     1  UNL1        0.1212
      3 C         143.9475  139.9319  163.7497 C.3     1  UNL1        0.1169
      4 N         144.3524  141.3700  163.8840 N.am    1  UNL1       -0.2606
      5 C         143.9064  141.8532  165.2322 C.2     1  UNL1        0.3111
      6 O         144.1059  143.2335  165.7844 O.2     1  UNL1       -0.2520
      7 C         141.3929  142.0586  169.1841 C.ar    1  UNL1        0.0697
      8 C         141.4242  140.8363  170.0529 C.ar    1  UNL1        0.0104
      9 C         142.0561  139.5731  169.5478 C.ar    1  UNL1        0.0020
     10 C         142.6567  139.5323  168.1739 C.ar    1  UNL1        0.0150
     11 C         142.6253  140.7546  167.3051 C.ar    1  UNL1        0.0560
     12 C         141.9934  142.0178  167.8102 C.ar    1  UNL1        0.0252
     13 N         140.1291  144.5850  170.1942 N.1     1  UNL1       -0.1908
     14 C         140.7610  143.3218  169.6892 C.1     1  UNL1        0.1005
     15 C         145.0762  142.1823  162.8514 C.3     1  UNL1        0.1123
     16 C         144.3481  143.2523  162.0932 C.3     1  UNL1        0.0944
     17 N         142.8623  143.3966  162.2400 N.3     1  UNL1       -0.2637
     18 C         142.1531  144.4571  163.0289 C.3     1  UNL1        0.0992
     19 C         140.6773  144.2217  162.9002 C.ar    1  UNL1       -0.0088
     20 C         139.4921  144.9497  163.4616 C.ar    1  UNL1       -0.0032
     21 C         138.1039  144.4717  163.1544 C.ar    1  UNL1       -0.0003
     22 C         137.9009  143.2658  162.2858 C.ar    1  UNL1       -0.0003
     23 C         139.0861  142.5378  161.7244 C.ar    1  UNL1       -0.0032
     24 C         140.4743  143.0158  162.0316 C.ar    1  UNL1       -0.0088
     25 C         141.8247  142.5058  161.6236 C.3     1  UNL1        0.0992
@<TRIPOS>BOND
     1    13    14    3
     2    14     7    1
     3     7     8   ar
     4     8     9   ar
     5     9    10   ar
     6    10    11   ar
     7    11     1    1
     8     1     2    1
     9     2     3    1
    10     3     4    1
    11     4    15    1
    12    15    16    1
    13    16    17    1
    14    17    18    1
    15    18    19    1
    16    19    20   ar
    17    20    21   ar
    18    21    22   ar
    19    22    23   ar
    20    23    24   ar
    21    24    25    1
    22     4     5   am
    23     5     6    2
    24    11    12   ar
    25    12     7   ar
    26     5     1   am
    27    25    17    1
    28    24    19   ar
@<TRIPOS>MOLECULE
*****
 25 28 0 0 0
SMALL
GASTEIGER

@<TRIPOS>ATOM
      1 N         140.3475  138.6356  163.6758 N.am    1  UNL1       -0.2413
      2 C         139.6546  138.6509  162.3455 C.3     1  UNL1        0.1212
      3 C         140.6783  138.3675  161.2863 C.3     1  UNL1        0.1169
      4 N         142.0039  138.1770  161.9621 N.am    1  UNL1       -0.2606
      5 C         141.7994  138.3427  163.4388 C.2     1  UNL1        0.3111
      6 O         142.8605  138.2345  164.4935 O.2     1  UNL1       -0.2520
      7 C         139.5780  140.1834  167.2481 C.ar    1  UNL1        0.0697
      8 C         138.4104  139.3441  167.6752 C.ar    1  UNL1        0.0104
      9 C         137.8886  138.2687  166.7691 C.ar    1  UNL1        0.0020
     10 C         138.5342  138.0325  165.4359 C.ar    1  UNL1        0.0150
     11 C         139.7018  138.8718  165.0089 C.ar    1  UNL1        0.0560
     12 C         140.2237  139.9472  165.9150 C.ar    1  UNL1        0.0252
     13 N         140.6217  142.3344  169.0604 N.1     1  UNL1       -0.1908
     14 C         140.0999  141.2589  168.1543 C.1     1  UNL1        0.1005
     15 C         143.3054  137.8740  161.2807 C.3     1  UNL1        0.1123
     16 C         144.2704  138.9823  160.9802 C.3     1  UNL1        0.0944
     17 N         144.1554  140.2930  161.7005 N.3     1  UNL1       -0.2637
     18 C         144.7344  140.6130  163.0467 C.3     1  UNL1        0.0992
     19 C         144.3779  142.0316  163.3794 C.ar    1  UNL1       -0.0088
     20 C         144.6779  142.8882  164.5735 C.ar    1  UNL1       -0.0032
     21 C         144.1786  144.3016  164.6270 C.ar    1  UNL1       -0.0003
     22 C         143.3793  144.8584  163.4863 C.ar    1  UNL1       -0.0003
     23 C         143.0793  144.0017  162.2921 C.ar    1  UNL1       -0.0032
     24 C         143.5786  142.5883  162.2387 C.ar    1  UNL1       -0.0088
     25 C         143.4411  141.5138  161.2011 C.3     1  UNL1        0.0992
@<TRIPOS>BOND
     1    13    14    3
     2    14     7    1
     3     7     8   ar
     4     8     9   ar
     5     9    10   ar
     6    10    11   ar
     7    11     1    1
     8     1     2    1
     9     2     3    1
    10     3     4    1
    11     4    15    1
    12    15    16    1
    13    16    17    1
    14    17    18    1
    15    18    19    1
    16    19    20   ar
    17    20    21   ar
    18    21    22   ar
    19    22    23   ar
    20    23    24   ar
    21    24    25    1
    22     4     5   am
    23     5     6    2
    24    11    12   ar
    25    12     7   ar
    26     5     1   am
    27    25    17    1
    28    24    19   ar
@<TRIPOS>MOLECULE
*****
 25 28 0 0 0
SMALL
GASTEIGER

@<TRIPOS>ATOM
      1 N         142.7168  142.6250  161.8374 N.am    1  UNL1       -0.2413
      2 C         144.1650  142.7857  162.1938 C.3     1  UNL1        0.1212
      3 C         144.8560  141.4817  161.9253 C.3     1  UNL1        0.1169
      4 N         143.8348  140.5150  161.4030 N.am    1  UNL1       -0.2606
      5 C         142.5128  141.2216  161.3487 C.2     1  UNL1        0.3111
      6 O         141.2146  140.6289  160.8867 O.2     1  UNL1       -0.2520
      7 C         139.8348  144.9006  163.3425 C.ar    1  UNL1        0.0697
      8 C         139.5421  145.7961  162.1753 C.ar    1  UNL1        0.0104
      9 C         140.3076  145.6346  160.8955 C.ar    1  UNL1        0.0020
     10 C         141.3659  144.5776  160.7828 C.ar    1  UNL1        0.0150
     11 C         141.6586  143.6820  161.9500 C.ar    1  UNL1        0.0560
     12 C         140.8931  143.8435  163.2298 C.ar    1  UNL1        0.0252
     13 N         138.3038  145.2236  165.9022 N.1     1  UNL1       -0.1908
     14 C         139.0693  145.0621  164.6223 C.1     1  UNL1        0.1005
     15 C         144.0907  139.0916  161.0049 C.3     1  UNL1        0.1123
     16 C         143.7134  137.9742  161.9316 C.3     1  UNL1        0.0944
     17 N         142.5952  138.1598  162.9141 N.3     1  UNL1       -0.2637
     18 C         142.6589  138.9593  164.1817 C.3     1  UNL1        0.0992
     19 C         141.3200  138.8722  164.8525 C.ar    1  UNL1       -0.0088
     20 C         140.7973  139.4597  166.1298 C.ar    1  UNL1       -0.0032
     21 C         139.3834  139.1938  166.5541 C.ar    1  UNL1       -0.0003
     22 C         138.4922  138.3404  165.7011 C.ar    1  UNL1       -0.0003
     23 C         139.0150  137.7530  164.4238 C.ar    1  UNL1       -0.0032
     24 C         140.4289  138.0189  163.9995 C.ar    1  UNL1       -0.0088
     25 C         141.2170  137.5786  162.8015 C.3     1  UNL1        0.0992
@<TRIPOS>BOND
     1    13    14    3
     2    14     7    1
     3     7     8   ar
     4     8     9   ar
     5     9    10   ar
     6    10    11   ar
     7    11     1    1
     8     1     2    1
     9     2     3    1
    10     3     4    1
    11     4    15    1
    12    15    16    1
    13    16    17    1
    14    17    18    1
    15    18    19    1
    16    19    20   ar
    17    20    21   ar
    18    21    22   ar
    19    22    23   ar
    20    23    24   ar
    21    24    25    1
    22     4     5   am
    23     5     6    2
    24    11    12   ar
    25    12     7   ar
    26     5     1   am
    27    25    17    1
    28    24    19   ar
@<TRIPOS>MOLECULE
*****
 25 28 0 0 0
SMALL
GASTEIGER

@<TRIPOS>ATOM
      1 N         139.5656  141.7919  165.7782 N.am    1  UNL1       -0.2413
      2 C         140.1598  141.5214  167.1287 C.3     1  UNL1        0.1212
      3 C         139.6205  140.2100  167.6182 C.3     1  UNL1        0.1169
      4 N         138.6931  139.6700  166.5701 N.am    1  UNL1       -0.2606
      5 C         138.6592  140.6477  165.4330 C.2     1  UNL1        0.3111
      6 O         137.8592  140.5061  164.1720 O.2     1  UNL1       -0.2520
      7 C         141.4923  144.4958  163.6042 C.ar    1  UNL1        0.0697
      8 C         140.3629  145.4021  163.2131 C.ar    1  UNL1        0.0104
      9 C         138.9677  145.1051  163.6771 C.ar    1  UNL1        0.0020
     10 C         138.7019  143.9017  164.5321 C.ar    1  UNL1        0.0150
     11 C         139.8313  142.9953  164.9232 C.ar    1  UNL1        0.0560
     12 C         141.2265  143.2924  164.4592 C.ar    1  UNL1        0.0252
     13 N         144.2826  145.0899  162.6762 N.1     1  UNL1       -0.1908
     14 C         142.8875  144.7928  163.1402 C.1     1  UNL1        0.1005
     15 C         137.9330  138.3791  166.6459 C.3     1  UNL1        0.1123
     16 C         138.3044  137.2363  165.7480 C.3     1  UNL1        0.0944
     17 N         139.2309  137.4625  164.5903 N.3     1  UNL1       -0.2637
     18 C         140.7288  137.5076  164.6554 C.3     1  UNL1        0.0992
     19 C         141.2458  137.7563  163.2695 C.ar    1  UNL1       -0.0088
     20 C         142.6373  137.8979  162.7277 C.ar    1  UNL1       -0.0032
     21 C         142.8505  138.1481  161.2642 C.ar    1  UNL1       -0.0003
     22 C         141.6721  138.2567  160.3425 C.ar    1  UNL1       -0.0003
     23 C         140.2806  138.1151  160.8842 C.ar    1  UNL1       -0.0032
     24 C         140.0674  137.8649  162.3477 C.ar    1  UNL1       -0.0088
     25 C         138.8221  137.6833  163.1640 C.3     1  UNL1        0.0992
@<TRIPOS>BOND
     1    13    14    3
     2    14     7    1
     3     7     8   ar
     4     8     9   ar
     5     9    10   ar
     6    10    11   ar
     7    11     1    1
     8     1     2    1
     9     2     3    1
    10     3     4    1
    11     4    15    1
    12    15    16    1
    13    16    17    1
    14    17    18    1
    15    18    19    1
    16    19    20   ar
    17    20    21   ar
    18    21    22   ar
    19    22    23   ar
    20    23    24   ar
    21    24    25    1
    22     4     5   am
    23     5     6    2
    24    11    12   ar
    25    12     7   ar
    26     5     1   am
    27    25    17    1
    28    24    19   ar
