@<TRIPOS>MOLECULE
*****
 34 38 0 0 0
SMALL
GASTEIGER

@<TRIPOS>ATOM
      1 C         138.8895  142.1599  158.6072 C.ar    1  UNL1        0.1769
      2 N         139.1511  140.8325  159.2550 N.ar    1  UNL1       -0.2086
      3 C         138.8048  140.9504  160.7097 C.ar    1  UNL1        0.1695
      4 C         138.8611  139.9636  161.8380 C.ar    1  UNL1        0.0567
      5 C         139.3367  138.5634  161.5868 C.ar    1  UNL1        0.0048
      6 C         139.3930  137.5766  162.7151 C.ar    1  UNL1        0.0033
      7 C         138.9737  137.9901  164.0946 C.ar    1  UNL1        0.0385
      8 C         138.4980  139.3903  164.3459 C.ar    1  UNL1        0.1564
      9 C         138.4417  140.3770  163.2176 C.ar    1  UNL1        0.1209
     10 N         137.9661  141.7773  163.4688 N.ar    1  UNL1       -0.2108
     11 C         137.9098  142.7641  162.3405 C.ar    1  UNL1        0.2163
     12 N         137.4341  144.1643  162.5918 N.pl3   1  UNL1       -0.3274
     13 N         138.3291  142.3506  160.9610 N.ar    1  UNL1       -0.1813
     14 N         138.3815  143.0981  159.6615 N.ar    1  UNL1       -0.1451
     15 H         137.1589  144.4357  163.4972 H       1  UNL1        0.1452
     16 H         137.3972  144.8120  161.8512 H       1  UNL1        0.1452
     17 O         138.0787  139.8037  165.7255 O.3     1  UNL1       -0.4699
     18 C         137.8547  138.7650  166.7842 C.3     1  UNL1        0.2525
     19 C         139.0991  142.4909  157.1592 C.3     1  UNL1        0.1408
     20 N         139.1214  146.7848  155.8132 N.pl3   1  UNL1       -0.3047
     21 C         140.1415  146.3034  156.8019 C.3     1  UNL1        0.1081
     22 C         140.1341  144.8721  157.2506 C.3     1  UNL1        0.0941
     23 N         139.1066  143.9222  156.7105 N.3     1  UNL1       -0.2644
     24 C         138.0864  144.4035  155.7218 C.3     1  UNL1        0.0777
     25 C         137.0589  143.4535  155.1817 C.3     1  UNL1        0.0192
     26 C         138.0938  145.8348  155.2731 C.3     1  UNL1        0.1067
     27 C         139.1437  151.0787  154.4671 C.ar    1  UNL1        0.1388
     28 C         139.8437  150.0331  153.6505 C.ar    1  UNL1        0.0382
     29 C         139.8363  148.6017  154.0992 C.ar    1  UNL1        0.0176
     30 C         139.1288  148.2161  155.3645 C.ar    1  UNL1        0.0481
     31 C         138.4289  149.2617  156.1810 C.ar    1  UNL1        0.0176
     32 C         138.4363  150.6930  155.7323 C.ar    1  UNL1        0.0382
     33 C         138.4300  153.5515  154.8218 C.3     1  UNL1        0.2525
     34 O         139.1511  152.5100  154.0184 O.3     1  UNL1       -0.4714
@<TRIPOS>BOND
     1    33    34    1
     2    34    27    1
     3    27    28   ar
     4    28    29   ar
     5    29    30   ar
     6    30    20    1
     7    20    21    1
     8    21    22    1
     9    22    23    1
    10    23    19    1
    11    19     1    1
    12     1     2   ar
    13     2     3   ar
    14     3     4   ar
    15     4     5   ar
    16     5     6   ar
    17     6     7   ar
    18     7     8   ar
    19     8    17    1
    20    17    18    1
    21     8     9   ar
    22     9    10   ar
    23    10    11   ar
    24    11    12    1
    25    11    13   ar
    26    13    14   ar
    27    23    24    1
    28    24    25    1
    29    24    26    1
    30    30    31   ar
    31    31    32   ar
    32    32    27   ar
    33    26    20    1
    34    14     1   ar
    35    13     3   ar
    36     9     4   ar
    37    12    15    1
    38    12    16    1
@<TRIPOS>MOLECULE
*****
 34 38 0 0 0
SMALL
GASTEIGER

@<TRIPOS>ATOM
      1 C         142.1395  137.3572  156.8765 C.ar    1  UNL1        0.1769
      2 N         142.9236  136.2349  157.4893 N.ar    1  UNL1       -0.2086
      3 C         142.9929  135.1182  156.4902 C.ar    1  UNL1        0.1695
      4 C         143.6353  133.7637  156.5418 C.ar    1  UNL1        0.0567
      5 C         144.3766  133.3316  157.7721 C.ar    1  UNL1        0.0048
      6 C         145.0189  131.9771  157.8237 C.ar    1  UNL1        0.0033
      7 C         144.9199  131.0547  156.6449 C.ar    1  UNL1        0.0385
      8 C         144.1786  131.4868  155.4146 C.ar    1  UNL1        0.1564
      9 C         143.5363  132.8413  155.3631 C.ar    1  UNL1        0.1209
     10 N         142.7949  133.2735  154.1327 N.ar    1  UNL1       -0.2108
     11 C         142.1526  134.6280  154.0812 C.ar    1  UNL1        0.2163
     12 N         141.4112  135.0601  152.8508 N.pl3   1  UNL1       -0.3274
     13 N         142.2515  135.5503  155.2599 N.ar    1  UNL1       -0.1813
     14 N         141.7241  136.9341  155.4986 N.ar    1  UNL1       -0.1451
     15 H         141.3462  134.4547  152.0772 H       1  UNL1        0.1452
     16 H         140.9896  135.9491  152.8170 H       1  UNL1        0.1452
     17 O         144.0796  130.5644  154.2359 O.3     1  UNL1       -0.4699
     18 C         142.9530  129.5780  154.1480 C.3     1  UNL1        0.2525
     19 C         141.8258  138.6718  157.5273 C.3     1  UNL1        0.1408
     20 N         140.0445  138.7688  161.6586 N.pl3   1  UNL1       -0.3047
     21 C         139.1635  138.5354  160.4672 C.3     1  UNL1        0.1081
     22 C         139.7572  138.5030  159.0901 C.3     1  UNL1        0.0941
     23 N         141.2320  138.7041  158.9044 N.3     1  UNL1       -0.2644
     24 C         142.1131  138.9375  160.0957 C.3     1  UNL1        0.0777
     25 C         143.5879  139.1386  159.9099 C.3     1  UNL1        0.0192
     26 C         141.5193  138.9699  161.4728 C.3     1  UNL1        0.1067
     27 C         138.2632  138.8658  165.7899 C.ar    1  UNL1        0.1388
     28 C         138.2633  140.1045  164.9439 C.ar    1  UNL1        0.0382
     29 C         138.8571  140.0722  163.5668 C.ar    1  UNL1        0.0176
     30 C         139.4507  138.8011  163.0357 C.ar    1  UNL1        0.0481
     31 C         139.4505  137.5625  163.8816 C.ar    1  UNL1        0.0176
     32 C         138.8568  137.5948  165.2587 C.ar    1  UNL1        0.0382
     33 C         136.9033  137.7154  167.6814 C.3     1  UNL1        0.2525
     34 O         137.6694  138.8981  167.1670 O.3     1  UNL1       -0.4714
@<TRIPOS>BOND
     1    33    34    1
     2    34    27    1
     3    27    28   ar
     4    28    29   ar
     5    29    30   ar
     6    30    20    1
     7    20    21    1
     8    21    22    1
     9    22    23    1
    10    23    19    1
    11    19     1    1
    12     1     2   ar
    13     2     3   ar
    14     3     4   ar
    15     4     5   ar
    16     5     6   ar
    17     6     7   ar
    18     7     8   ar
    19     8    17    1
    20    17    18    1
    21     8     9   ar
    22     9    10   ar
    23    10    11   ar
    24    11    12    1
    25    11    13   ar
    26    13    14   ar
    27    23    24    1
    28    24    25    1
    29    24    26    1
    30    30    31   ar
    31    31    32   ar
    32    32    27   ar
    33    26    20    1
    34    14     1   ar
    35    13     3   ar
    36     9     4   ar
    37    12    15    1
    38    12    16    1
@<TRIPOS>MOLECULE
*****
 34 38 0 0 0
SMALL
GASTEIGER

@<TRIPOS>ATOM
      1 C         140.6464  138.4331  158.4542 C.ar    1  UNL1        0.1769
      2 N         141.3810  138.3195  159.7571 N.ar    1  UNL1       -0.2086
      3 C         140.4003  138.5655  160.8651 C.ar    1  UNL1        0.1695
      4 C         140.5550  138.5820  162.3570 C.ar    1  UNL1        0.0567
      5 C         141.8956  138.3164  162.9751 C.ar    1  UNL1        0.0048
      6 C         142.0502  138.3329  164.4670 C.ar    1  UNL1        0.0033
      7 C         140.8641  138.6149  165.3408 C.ar    1  UNL1        0.0385
      8 C         139.5234  138.8805  164.7228 C.ar    1  UNL1        0.1564
      9 C         139.3689  138.8641  163.2309 C.ar    1  UNL1        0.1209
     10 N         138.0281  139.1297  162.6128 N.ar    1  UNL1       -0.2108
     11 C         137.8736  139.1132  161.1209 C.ar    1  UNL1        0.2163
     12 N         136.5328  139.3788  160.5028 N.pl3   1  UNL1       -0.3274
     13 N         139.0596  138.8311  160.2470 N.ar    1  UNL1       -0.1813
     14 N         139.2117  138.7493  158.7570 N.ar    1  UNL1       -0.1451
     15 H         135.7543  139.5640  161.0763 H       1  UNL1        0.1452
     16 H         136.4314  139.3680  159.5236 H       1  UNL1        0.1452
     17 O         138.3374  139.1626  165.5967 O.3     1  UNL1       -0.4699
     18 C         137.8688  138.1321  166.5807 C.3     1  UNL1        0.2525
     19 C         141.2420  138.2607  157.0883 C.3     1  UNL1        0.1408
     20 N         142.8024  134.2397  155.8052 N.pl3   1  UNL1       -0.3047
     21 C         143.5202  135.0187  156.8671 C.3     1  UNL1        0.1081
     22 C         143.0001  136.3591  157.2948 C.3     1  UNL1        0.0941
     23 N         141.7621  136.9204  156.6606 N.3     1  UNL1       -0.2644
     24 C         141.0442  136.1413  155.5986 C.3     1  UNL1        0.0777
     25 C         139.8062  136.7026  154.9644 C.3     1  UNL1        0.0192
     26 C         141.5643  134.8010  155.1709 C.3     1  UNL1        0.1067
     27 C         144.3627  130.2186  154.5222 C.ar    1  UNL1        0.1388
     28 C         144.8830  130.8603  155.7743 C.ar    1  UNL1        0.0382
     29 C         144.3629  132.2006  156.2019 C.ar    1  UNL1        0.0176
     30 C         143.3225  132.8993  155.3775 C.ar    1  UNL1        0.0481
     31 C         142.8023  132.2576  154.1255 C.ar    1  UNL1        0.0176
     32 C         143.3224  130.9172  153.6979 C.ar    1  UNL1        0.0382
     33 C         145.1974  128.6218  152.6504 C.3     1  UNL1        0.2525
     34 O         144.8828  128.8782  154.0945 O.3     1  UNL1       -0.4714
@<TRIPOS>BOND
     1    33    34    1
     2    34    27    1
     3    27    28   ar
     4    28    29   ar
     5    29    30   ar
     6    30    20    1
     7    20    21    1
     8    21    22    1
     9    22    23    1
    10    23    19    1
    11    19     1    1
    12     1     2   ar
    13     2     3   ar
    14     3     4   ar
    15     4     5   ar
    16     5     6   ar
    17     6     7   ar
    18     7     8   ar
    19     8    17    1
    20    17    18    1
    21     8     9   ar
    22     9    10   ar
    23    10    11   ar
    24    11    12    1
    25    11    13   ar
    26    13    14   ar
    27    23    24    1
    28    24    25    1
    29    24    26    1
    30    30    31   ar
    31    31    32   ar
    32    32    27   ar
    33    26    20    1
    34    14     1   ar
    35    13     3   ar
    36     9     4   ar
    37    12    15    1
    38    12    16    1
@<TRIPOS>MOLECULE
*****
 34 38 0 0 0
SMALL
GASTEIGER

@<TRIPOS>ATOM
      1 C         142.1013  137.2313  157.2169 C.ar    1  UNL1        0.1769
      2 N         141.7142  136.7287  155.8577 N.ar    1  UNL1       -0.2086
      3 C         142.2906  135.3541  155.6904 C.ar    1  UNL1        0.1695
      4 C         142.2347  134.3734  154.5566 C.ar    1  UNL1        0.0567
      5 C         141.4914  134.7204  153.3008 C.ar    1  UNL1        0.0048
      6 C         141.4355  133.7398  152.1672 C.ar    1  UNL1        0.0033
      7 C         142.1229  132.4122  152.2894 C.ar    1  UNL1        0.0385
      8 C         142.8661  132.0651  153.5452 C.ar    1  UNL1        0.1564
      9 C         142.9220  133.0458  154.6788 C.ar    1  UNL1        0.1209
     10 N         143.6653  132.6988  155.9347 N.ar    1  UNL1       -0.2108
     11 C         143.7212  133.6794  157.0683 C.ar    1  UNL1        0.2163
     12 N         144.4645  133.3324  158.3242 N.pl3   1  UNL1       -0.3274
     13 N         143.0339  135.0071  156.9462 N.ar    1  UNL1       -0.1813
     14 N         142.9169  136.1673  157.8897 N.ar    1  UNL1       -0.1451
     15 H         144.9157  132.4610  158.4044 H       1  UNL1        0.1452
     16 H         144.5012  133.9761  159.0683 H       1  UNL1        0.1452
     17 O         143.5535  130.7375  153.6673 O.3     1  UNL1       -0.4699
     18 C         143.2091  129.6249  152.7221 C.3     1  UNL1        0.2525
     19 C         141.7367  138.5641  157.8009 C.3     1  UNL1        0.1408
     20 N         140.3819  138.8496  162.0826 N.pl3   1  UNL1       -0.3047
     21 C         139.3989  138.4938  161.0071 C.3     1  UNL1        0.1081
     22 C         139.8504  138.3986  159.5798 C.3     1  UNL1        0.0941
     23 N         141.2851  138.6593  159.2282 N.3     1  UNL1       -0.2644
     24 C         142.2683  139.0151  160.3038 C.3     1  UNL1        0.0777
     25 C         143.7030  139.2757  159.9521 C.3     1  UNL1        0.0192
     26 C         141.8167  139.1103  161.7310 C.3     1  UNL1        0.1067
     27 C         139.0272  139.1352  166.3644 C.ar    1  UNL1        0.1388
     28 C         139.8622  140.2291  165.7674 C.ar    1  UNL1        0.0382
     29 C         140.3137  140.1339  164.3401 C.ar    1  UNL1        0.0176
     30 C         139.9304  138.9448  163.5099 C.ar    1  UNL1        0.0481
     31 C         139.0954  137.8510  164.1069 C.ar    1  UNL1        0.0176
     32 C         138.6439  137.9462  165.5341 C.ar    1  UNL1        0.0382
     33 C         139.3307  140.0903  168.7614 C.3     1  UNL1        0.2525
     34 O         138.5756  139.2304  167.7916 O.3     1  UNL1       -0.4714
@<TRIPOS>BOND
     1    33    34    1
     2    34    27    1
     3    27    28   ar
     4    28    29   ar
     5    29    30   ar
     6    30    20    1
     7    20    21    1
     8    21    22    1
     9    22    23    1
    10    23    19    1
    11    19     1    1
    12     1     2   ar
    13     2     3   ar
    14     3     4   ar
    15     4     5   ar
    16     5     6   ar
    17     6     7   ar
    18     7     8   ar
    19     8    17    1
    20    17    18    1
    21     8     9   ar
    22     9    10   ar
    23    10    11   ar
    24    11    12    1
    25    11    13   ar
    26    13    14   ar
    27    23    24    1
    28    24    25    1
    29    24    26    1
    30    30    31   ar
    31    31    32   ar
    32    32    27   ar
    33    26    20    1
    34    14     1   ar
    35    13     3   ar
    36     9     4   ar
    37    12    15    1
    38    12    16    1
@<TRIPOS>MOLECULE
*****
 34 38 0 0 0
SMALL
GASTEIGER

@<TRIPOS>ATOM
      1 C         139.7946  140.5574  157.5875 C.ar    1  UNL1        0.1769
      2 N         140.1473  141.9278  158.0851 N.ar    1  UNL1       -0.2086
      3 C         139.4746  142.1268  159.4109 C.ar    1  UNL1        0.1695
      4 C         139.4625  143.2829  160.3667 C.ar    1  UNL1        0.0567
      5 C         140.2309  144.5302  160.0449 C.ar    1  UNL1        0.0048
      6 C         140.2187  145.6862  161.0007 C.ar    1  UNL1        0.0033
      7 C         139.4382  145.5948  162.2783 C.ar    1  UNL1        0.0385
      8 C         138.6698  144.3474  162.6002 C.ar    1  UNL1        0.1564
      9 C         138.6819  143.1915  161.6443 C.ar    1  UNL1        0.1209
     10 N         137.9135  141.9440  161.9662 N.ar    1  UNL1       -0.2108
     11 C         137.9256  140.7881  161.0104 C.ar    1  UNL1        0.2163
     12 N         137.1572  139.5407  161.3322 N.pl3   1  UNL1       -0.3274
     13 N         138.7062  140.8795  159.7327 N.ar    1  UNL1       -0.1813
     14 N         138.9040  139.9095  158.6058 N.ar    1  UNL1       -0.1451
     15 H         136.6449  139.4807  162.1707 H       1  UNL1        0.1452
     16 H         137.1652  138.7820  160.7048 H       1  UNL1        0.1452
     17 O         137.8892  144.2560  163.8778 O.3     1  UNL1       -0.4699
     18 C         138.5316  144.6387  165.1781 C.3     1  UNL1        0.2525
     19 C         140.2523  139.9428  156.2979 C.3     1  UNL1        0.1408
     20 N         142.2572  135.9141  156.3125 N.pl3   1  UNL1       -0.3047
     21 C         142.9622  137.1048  156.8915 C.3     1  UNL1        0.1081
     22 C         142.2939  138.4477  156.8866 C.3     1  UNL1        0.0941
     23 N         140.9206  138.5999  156.3028 N.3     1  UNL1       -0.2644
     24 C         140.2156  137.4092  155.7237 C.3     1  UNL1        0.0777
     25 C         138.8423  137.5614  155.1399 C.3     1  UNL1        0.0192
     26 C         140.8839  136.0663  155.7286 C.3     1  UNL1        0.1067
     27 C         144.2621  131.8854  156.3270 C.ar    1  UNL1        0.1388
     28 C         144.4231  132.8075  157.4992 C.ar    1  UNL1        0.0382
     29 C         143.7548  134.1504  157.4944 C.ar    1  UNL1        0.0176
     30 C         142.9255  134.5712  156.3173 C.ar    1  UNL1        0.0481
     31 C         142.7646  133.6492  155.1452 C.ar    1  UNL1        0.0176
     32 C         143.4329  132.3063  155.1501 C.ar    1  UNL1        0.0382
     33 C         144.8920  129.6812  155.1043 C.3     1  UNL1        0.2525
     34 O         144.9304  130.5425  156.3318 O.3     1  UNL1       -0.4714
@<TRIPOS>BOND
     1    33    34    1
     2    34    27    1
     3    27    28   ar
     4    28    29   ar
     5    29    30   ar
     6    30    20    1
     7    20    21    1
     8    21    22    1
     9    22    23    1
    10    23    19    1
    11    19     1    1
    12     1     2   ar
    13     2     3   ar
    14     3     4   ar
    15     4     5   ar
    16     5     6   ar
    17     6     7   ar
    18     7     8   ar
    19     8    17    1
    20    17    18    1
    21     8     9   ar
    22     9    10   ar
    23    10    11   ar
    24    11    12    1
    25    11    13   ar
    26    13    14   ar
    27    23    24    1
    28    24    25    1
    29    24    26    1
    30    30    31   ar
    31    31    32   ar
    32    32    27   ar
    33    26    20    1
    34    14     1   ar
    35    13     3   ar
    36     9     4   ar
    37    12    15    1
    38    12    16    1
@<TRIPOS>MOLECULE
*****
 34 38 0 0 0
SMALL
GASTEIGER

@<TRIPOS>ATOM
      1 C         142.2153  138.2092  158.0516 C.ar    1  UNL1        0.1769
      2 N         142.9938  136.9471  158.2773 N.ar    1  UNL1       -0.2086
      3 C         142.5996  135.9632  157.2160 C.ar    1  UNL1        0.1695
      4 C         143.0394  134.5562  156.9385 C.ar    1  UNL1        0.0567
      5 C         144.0615  133.9022  157.8202 C.ar    1  UNL1        0.0048
      6 C         144.5012  132.4953  157.5427 C.ar    1  UNL1        0.0033
      7 C         143.9188  131.7423  156.3835 C.ar    1  UNL1        0.0385
      8 C         142.8966  132.3963  155.5018 C.ar    1  UNL1        0.1564
      9 C         142.4569  133.8032  155.7793 C.ar    1  UNL1        0.1209
     10 N         141.4347  134.4573  154.8975 N.ar    1  UNL1       -0.2108
     11 C         140.9950  135.8642  155.1750 C.ar    1  UNL1        0.2163
     12 N         139.9728  136.5183  154.2933 N.pl3   1  UNL1       -0.3274
     13 N         141.5774  136.6172  156.3343 N.ar    1  UNL1       -0.1813
     14 N         141.3399  138.0053  156.8507 N.ar    1  UNL1       -0.1451
     15 H         139.5905  136.0241  153.5325 H       1  UNL1        0.1452
     16 H         139.6842  137.4418  154.4754 H       1  UNL1        0.1452
     17 O         142.3142  131.6433  154.3426 O.3     1  UNL1       -0.4699
     18 C         141.1307  130.7455  154.5499 C.3     1  UNL1        0.2525
     19 C         142.2977  139.4563  158.8811 C.3     1  UNL1        0.1408
     20 N         140.6941  139.4718  163.0857 N.pl3   1  UNL1       -0.3047
     21 C         140.1628  138.4899  162.0839 C.3     1  UNL1        0.1081
     22 C         140.6973  138.4848  160.6824 C.3     1  UNL1        0.0941
     23 N         141.7632  139.4615  160.2826 N.3     1  UNL1       -0.2644
     24 C         142.2946  140.4435  161.2844 C.3     1  UNL1        0.0777
     25 C         143.3604  141.4202  160.8846 C.3     1  UNL1        0.0192
     26 C         141.7601  140.4486  162.6859 C.3     1  UNL1        0.1067
     27 C         139.0905  139.4873  167.2902 C.ar    1  UNL1        0.1388
     28 C         140.5088  139.8989  167.0269 C.ar    1  UNL1        0.0382
     29 C         141.0433  139.8938  165.6254 C.ar    1  UNL1        0.0176
     30 C         140.1596  139.4770  164.4872 C.ar    1  UNL1        0.0481
     31 C         138.7415  139.0654  164.7505 C.ar    1  UNL1        0.0176
     32 C         138.2069  139.0705  166.1520 C.ar    1  UNL1        0.0382
     33 C         139.1237  140.4391  169.7075 C.3     1  UNL1        0.2525
     34 O         138.5560  139.4925  168.6917 O.3     1  UNL1       -0.4714
@<TRIPOS>BOND
     1    33    34    1
     2    34    27    1
     3    27    28   ar
     4    28    29   ar
     5    29    30   ar
     6    30    20    1
     7    20    21    1
     8    21    22    1
     9    22    23    1
    10    23    19    1
    11    19     1    1
    12     1     2   ar
    13     2     3   ar
    14     3     4   ar
    15     4     5   ar
    16     5     6   ar
    17     6     7   ar
    18     7     8   ar
    19     8    17    1
    20    17    18    1
    21     8     9   ar
    22     9    10   ar
    23    10    11   ar
    24    11    12    1
    25    11    13   ar
    26    13    14   ar
    27    23    24    1
    28    24    25    1
    29    24    26    1
    30    30    31   ar
    31    31    32   ar
    32    32    27   ar
    33    26    20    1
    34    14     1   ar
    35    13     3   ar
    36     9     4   ar
    37    12    15    1
    38    12    16    1
@<TRIPOS>MOLECULE
*****
 34 38 0 0 0
SMALL
GASTEIGER

@<TRIPOS>ATOM
      1 C         142.2436  137.5256  157.3407 C.ar    1  UNL1        0.1769
      2 N         143.0509  136.3670  157.8465 N.ar    1  UNL1       -0.2086
      3 C         143.0326  135.2959  156.7966 C.ar    1  UNL1        0.1695
      4 C         143.6555  133.9323  156.7429 C.ar    1  UNL1        0.0567
      5 C         144.4740  133.4357  157.8976 C.ar    1  UNL1        0.0048
      6 C         145.0970  132.0723  157.8438 C.ar    1  UNL1        0.0033
      7 C         144.9014  131.2055  156.6354 C.ar    1  UNL1        0.0385
      8 C         144.0829  131.7021  155.4807 C.ar    1  UNL1        0.1564
      9 C         143.4599  133.0655  155.5344 C.ar    1  UNL1        0.1209
     10 N         142.6414  133.5622  154.3797 N.ar    1  UNL1       -0.2108
     11 C         142.0185  134.9257  154.4335 C.ar    1  UNL1        0.2163
     12 N         141.1999  135.4224  153.2787 N.pl3   1  UNL1       -0.3274
     13 N         142.2140  135.7925  155.6419 N.ar    1  UNL1       -0.1813
     14 N         141.7265  137.1706  155.9782 N.ar    1  UNL1       -0.1451
     15 H         141.0715  134.8535  152.4856 H       1  UNL1        0.1452
     16 H         140.7911  136.3173  153.3140 H       1  UNL1        0.1452
     17 O         143.8873  130.8353  154.2722 O.3     1  UNL1       -0.4699
     18 C         142.7413  129.8689  154.2199 C.3     1  UNL1        0.2525
     19 C         141.9969  138.8133  158.0695 C.3     1  UNL1        0.1408
     20 N         142.3694  138.9691  162.5513 N.pl3   1  UNL1       -0.3047
     21 C         143.5821  139.1652  161.6907 C.3     1  UNL1        0.1081
     22 C         143.4580  139.1132  160.1968 C.3     1  UNL1        0.0941
     23 N         142.1211  138.8653  159.5634 N.3     1  UNL1       -0.2644
     24 C         140.9082  138.6692  160.4241 C.3     1  UNL1        0.0777
     25 C         139.5713  138.4212  159.7908 C.3     1  UNL1        0.0192
     26 C         141.0324  138.7211  161.9180 C.3     1  UNL1        0.1067
     27 C         142.7419  139.1249  167.0332 C.ar    1  UNL1        0.1388
     28 C         143.9152  138.7071  166.1972 C.ar    1  UNL1        0.0382
     29 C         143.7910  138.6552  164.7032 C.ar    1  UNL1        0.0176
     30 C         142.4935  139.0210  164.0453 C.ar    1  UNL1        0.0481
     31 C         141.3203  139.4388  164.8813 C.ar    1  UNL1        0.0176
     32 C         141.4445  139.4907  166.3753 C.ar    1  UNL1        0.0382
     33 C         142.8021  140.4953  169.2397 C.3     1  UNL1        0.2525
     34 O         142.8660  139.1768  168.5272 O.3     1  UNL1       -0.4714
@<TRIPOS>BOND
     1    33    34    1
     2    34    27    1
     3    27    28   ar
     4    28    29   ar
     5    29    30   ar
     6    30    20    1
     7    20    21    1
     8    21    22    1
     9    22    23    1
    10    23    19    1
    11    19     1    1
    12     1     2   ar
    13     2     3   ar
    14     3     4   ar
    15     4     5   ar
    16     5     6   ar
    17     6     7   ar
    18     7     8   ar
    19     8    17    1
    20    17    18    1
    21     8     9   ar
    22     9    10   ar
    23    10    11   ar
    24    11    12    1
    25    11    13   ar
    26    13    14   ar
    27    23    24    1
    28    24    25    1
    29    24    26    1
    30    30    31   ar
    31    31    32   ar
    32    32    27   ar
    33    26    20    1
    34    14     1   ar
    35    13     3   ar
    36     9     4   ar
    37    12    15    1
    38    12    16    1
@<TRIPOS>MOLECULE
*****
 34 38 0 0 0
SMALL
GASTEIGER

@<TRIPOS>ATOM
      1 C         138.1003  140.1652  159.9794 C.ar    1  UNL1        0.1769
      2 N         139.0085  141.3526  160.1029 N.ar    1  UNL1       -0.2086
      3 C         138.8921  142.1582  158.8430 C.ar    1  UNL1        0.1695
      4 C         139.5520  143.4306  158.4007 C.ar    1  UNL1        0.0567
      5 C         140.5321  144.1201  159.3029 C.ar    1  UNL1        0.0048
      6 C         141.1919  145.3924  158.8605 C.ar    1  UNL1        0.0033
      7 C         140.8717  145.9753  157.5160 C.ar    1  UNL1        0.0385
      8 C         139.8916  145.2858  156.6138 C.ar    1  UNL1        0.1564
      9 C         139.2317  144.0135  157.0561 C.ar    1  UNL1        0.1209
     10 N         138.2516  143.3239  156.1539 N.ar    1  UNL1       -0.2108
     11 C         137.5917  142.0516  156.5962 C.ar    1  UNL1        0.2163
     12 N         136.6116  141.3620  155.6940 N.pl3   1  UNL1       -0.3274
     13 N         137.9120  141.4687  157.9408 N.ar    1  UNL1       -0.1813
     14 N         137.4226  140.2370  158.6431 N.ar    1  UNL1       -0.1451
     15 H         136.4014  141.7446  154.8116 H       1  UNL1        0.1452
     16 H         136.1785  140.5269  155.9844 H       1  UNL1        0.1452
     17 O         139.5714  145.8687  155.2693 O.3     1  UNL1       -0.4699
     18 C         139.1356  147.2995  155.1567 C.3     1  UNL1        0.2525
     19 C         137.9042  139.0941  161.0110 C.3     1  UNL1        0.1408
     20 N         139.7105  139.5571  165.1065 N.pl3   1  UNL1       -0.3047
     21 C         138.3659  140.1512  164.8083 C.3     1  UNL1        0.1081
     22 C         137.7638  139.9968  163.4432 C.3     1  UNL1        0.0941
     23 N         138.5063  139.2484  162.3762 N.3     1  UNL1       -0.2644
     24 C         139.8510  138.6543  162.6743 C.3     1  UNL1        0.0777
     25 C         140.5936  137.9059  161.6074 C.3     1  UNL1        0.0192
     26 C         140.4531  138.8086  164.0395 C.3     1  UNL1        0.1067
     27 C         141.5169  140.0202  169.2019 C.ar    1  UNL1        0.1388
     28 C         140.0357  140.1656  169.0147 C.ar    1  UNL1        0.0382
     29 C         139.4336  140.0113  167.6496 C.ar    1  UNL1        0.0176
     30 C         140.3126  139.7115  166.4716 C.ar    1  UNL1        0.0481
     31 C         141.7938  139.5660  166.6589 C.ar    1  UNL1        0.0176
     32 C         142.3959  139.7204  168.0241 C.ar    1  UNL1        0.0382
     33 C         141.8528  141.4144  171.3684 C.3     1  UNL1        0.2525
     34 O         142.1190  140.1745  170.5671 O.3     1  UNL1       -0.4714
@<TRIPOS>BOND
     1    33    34    1
     2    34    27    1
     3    27    28   ar
     4    28    29   ar
     5    29    30   ar
     6    30    20    1
     7    20    21    1
     8    21    22    1
     9    22    23    1
    10    23    19    1
    11    19     1    1
    12     1     2   ar
    13     2     3   ar
    14     3     4   ar
    15     4     5   ar
    16     5     6   ar
    17     6     7   ar
    18     7     8   ar
    19     8    17    1
    20    17    18    1
    21     8     9   ar
    22     9    10   ar
    23    10    11   ar
    24    11    12    1
    25    11    13   ar
    26    13    14   ar
    27    23    24    1
    28    24    25    1
    29    24    26    1
    30    30    31   ar
    31    31    32   ar
    32    32    27   ar
    33    26    20    1
    34    14     1   ar
    35    13     3   ar
    36     9     4   ar
    37    12    15    1
    38    12    16    1
@<TRIPOS>MOLECULE
*****
 34 38 0 0 0
SMALL
GASTEIGER

@<TRIPOS>ATOM
      1 C         139.3255  139.6365  159.9188 C.ar    1  UNL1        0.1769
      2 N         138.9809  139.0276  158.5920 N.ar    1  UNL1       -0.2086
      3 C         140.2010  138.3263  158.0729 C.ar    1  UNL1        0.1695
      4 C         140.4535  137.5505  156.8141 C.ar    1  UNL1        0.0567
      5 C         139.3547  137.3751  155.8081 C.ar    1  UNL1        0.0048
      6 C         139.6073  136.5994  154.5494 C.ar    1  UNL1        0.0033
      7 C         140.9585  135.9991  154.2966 C.ar    1  UNL1        0.0385
      8 C         142.0572  136.1746  155.3026 C.ar    1  UNL1        0.1564
      9 C         141.8047  136.9503  156.5613 C.ar    1  UNL1        0.1209
     10 N         142.9034  137.1257  157.5674 N.ar    1  UNL1       -0.2108
     11 C         142.6509  137.9015  158.8261 C.ar    1  UNL1        0.2163
     12 N         143.7497  138.0769  159.8322 N.pl3   1  UNL1       -0.3274
     13 N         141.2997  138.5017  159.0789 N.ar    1  UNL1       -0.1813
     14 N         140.7586  139.3115  160.2197 N.ar    1  UNL1       -0.1451
     15 H         144.6365  137.6829  159.6663 H       1  UNL1        0.1452
     16 H         143.5839  138.5861  160.6583 H       1  UNL1        0.1452
     17 O         143.4084  135.5743  155.0498 O.3     1  UNL1       -0.4699
     18 C         143.7089  134.1805  155.5157 C.3     1  UNL1        0.2525
     19 C         138.3996  140.4310  160.7915 C.3     1  UNL1        0.1408
     20 N         139.2784  140.8806  165.1819 N.pl3   1  UNL1       -0.3047
     21 C         138.8387  139.5541  164.6370 C.3     1  UNL1        0.1081
     22 C         138.5458  139.4042  163.1736 C.3     1  UNL1        0.0941
     23 N         138.6925  140.5809  162.2550 N.3     1  UNL1       -0.2644
     24 C         139.1322  141.9075  162.7998 C.3     1  UNL1        0.0777
     25 C         139.2789  143.0842  161.8812 C.3     1  UNL1        0.0192
     26 C         139.4251  142.0574  164.2633 C.3     1  UNL1        0.1067
     27 C         140.1572  141.3303  169.5723 C.ar    1  UNL1        0.1388
     28 C         140.5529  142.4139  168.6134 C.ar    1  UNL1        0.0382
     29 C         140.2599  142.2640  167.1499 C.ar    1  UNL1        0.0176
     30 C         139.5713  141.0305  166.6454 C.ar    1  UNL1        0.0481
     31 C         139.1757  139.9471  167.6042 C.ar    1  UNL1        0.0176
     32 C         139.4686  140.0970  169.0677 C.ar    1  UNL1        0.0382
     33 C         141.8118  141.9188  171.4870 C.3     1  UNL1        0.2525
     34 O         140.4501  141.4802  171.0357 O.3     1  UNL1       -0.4714
@<TRIPOS>BOND
     1    33    34    1
     2    34    27    1
     3    27    28   ar
     4    28    29   ar
     5    29    30   ar
     6    30    20    1
     7    20    21    1
     8    21    22    1
     9    22    23    1
    10    23    19    1
    11    19     1    1
    12     1     2   ar
    13     2     3   ar
    14     3     4   ar
    15     4     5   ar
    16     5     6   ar
    17     6     7   ar
    18     7     8   ar
    19     8    17    1
    20    17    18    1
    21     8     9   ar
    22     9    10   ar
    23    10    11   ar
    24    11    12    1
    25    11    13   ar
    26    13    14   ar
    27    23    24    1
    28    24    25    1
    29    24    26    1
    30    30    31   ar
    31    31    32   ar
    32    32    27   ar
    33    26    20    1
    34    14     1   ar
    35    13     3   ar
    36     9     4   ar
    37    12    15    1
    38    12    16    1
