@<TRIPOS>MOLECULE
*****
 26 28 0 0 0
SMALL
GASTEIGER

@<TRIPOS>ATOM
      1 P         141.2804  141.4078  164.3138 P.3     1  UNL1        0.2265
      2 O         140.0940  142.1318  163.7496 O.2     1  UNL1       -0.2903
      3 C         140.3789  140.3155  164.8078 C.ar    1  UNL1        0.0498
      4 C         140.4104  138.9648  164.1561 C.ar    1  UNL1        0.0046
      5 C         139.5089  137.8725  164.6500 C.ar    1  UNL1        0.0002
      6 C         138.5759  138.1307  165.7957 C.ar    1  UNL1        0.0000
      7 C         138.5443  139.4813  166.4474 C.ar    1  UNL1        0.0002
      8 C         139.4458  140.5737  165.9535 C.ar    1  UNL1        0.0046
      9 C         142.1819  142.5002  163.8199 C.ar    1  UNL1        0.0498
     10 C         142.5181  142.5930  162.3610 C.ar    1  UNL1        0.0046
     11 C         143.4196  143.6854  161.8671 C.ar    1  UNL1        0.0002
     12 C         143.9849  144.6850  162.8320 C.ar    1  UNL1        0.0000
     13 C         143.6487  144.5923  164.2908 C.ar    1  UNL1        0.0002
     14 C         142.7472  143.4999  164.7848 C.ar    1  UNL1        0.0046
     15 N         142.4668  140.6839  164.8781 N.pl3   1  UNL1       -0.2616
     16 C         142.5832  140.4749  166.3589 C.ar    1  UNL1        0.0539
     17 C         142.6958  139.0858  166.9137 C.ar    1  UNL1        0.0149
     18 C         142.8122  138.8769  168.3945 C.ar    1  UNL1        0.0020
     19 C         142.8160  140.0570  169.3205 C.ar    1  UNL1        0.0104
     20 C         142.7033  141.4460  168.7657 C.ar    1  UNL1        0.0697
     21 C         142.5869  141.6549  167.2849 C.ar    1  UNL1        0.0251
     22 C         142.7071  142.6260  169.6917 C.1     1  UNL1        0.1005
     23 N         142.7108  143.8061  170.6176 N.1     1  UNL1       -0.1908
     24 C         143.5367  140.1690  163.9616 C.3     1  UNL1        0.0974
     25 C         145.7748  141.4785  163.7997 C.3     1  UNL1        0.0018
     26 C         144.9816  140.3231  164.3342 C.3     1  UNL1        0.0218
@<TRIPOS>BOND
     1    25    26    1
     2    26    24    1
     3    24    15    1
     4    15    16    1
     5    16    17   ar
     6    17    18   ar
     7    18    19   ar
     8    19    20   ar
     9    20    22    1
    10    22    23    3
    11    20    21   ar
    12    15     1    1
    13     1     2    2
    14     1     3    1
    15     3     4   ar
    16     4     5   ar
    17     5     6   ar
    18     6     7   ar
    19     7     8   ar
    20     1     9    1
    21     9    10   ar
    22    10    11   ar
    23    11    12   ar
    24    12    13   ar
    25    13    14   ar
    26    21    16   ar
    27     8     3   ar
    28    14     9   ar
@<TRIPOS>MOLECULE
*****
 26 28 0 0 0
SMALL
GASTEIGER

@<TRIPOS>ATOM
      1 P         141.2453  141.4314  164.3559 P.3     1  UNL1        0.2265
      2 O         140.0490  142.1440  163.7983 O.2     1  UNL1       -0.2903
      3 C         142.1335  142.5329  163.8579 C.ar    1  UNL1        0.0498
      4 C         142.7401  143.5035  164.8274 C.ar    1  UNL1        0.0046
      5 C         143.6282  144.6050  164.3295 C.ar    1  UNL1        0.0002
      6 C         143.9097  144.7359  162.8620 C.ar    1  UNL1        0.0000
      7 C         143.3031  143.7653  161.8925 C.ar    1  UNL1        0.0002
      8 C         142.4150  142.6639  162.3904 C.ar    1  UNL1        0.0046
      9 C         140.3572  140.3300  164.8538 C.ar    1  UNL1        0.0498
     10 C         139.4346  140.5755  166.0108 C.ar    1  UNL1        0.0046
     11 C         138.5465  139.4740  166.5087 C.ar    1  UNL1        0.0002
     12 C         138.5810  138.1270  165.8498 C.ar    1  UNL1        0.0000
     13 C         139.5035  137.8814  164.6928 C.ar    1  UNL1        0.0002
     14 C         140.3917  138.9829  164.1949 C.ar    1  UNL1        0.0046
     15 N         142.4417  140.7189  164.9135 N.pl3   1  UNL1       -0.2616
     16 C         142.5634  140.5020  166.3928 C.ar    1  UNL1        0.0539
     17 C         142.6863  139.1105  166.9392 C.ar    1  UNL1        0.0149
     18 C         142.8080  138.8937  168.4184 C.ar    1  UNL1        0.0020
     19 C         142.8068  140.0684  169.3512 C.ar    1  UNL1        0.0104
     20 C         142.6839  141.4599  168.8048 C.ar    1  UNL1        0.0697
     21 C         142.5622  141.6767  167.3256 C.ar    1  UNL1        0.0251
     22 C         142.6827  142.6345  169.7376 C.1     1  UNL1        0.1005
     23 N         142.6815  143.8092  170.6705 N.1     1  UNL1       -0.1908
     24 C         143.5164  140.2232  163.9919 C.3     1  UNL1        0.0974
     25 C         145.7687  141.4951  163.7481 C.3     1  UNL1        0.0018
     26 C         144.9598  140.3920  164.3636 C.3     1  UNL1        0.0218
@<TRIPOS>BOND
     1    25    26    1
     2    26    24    1
     3    24    15    1
     4    15    16    1
     5    16    17   ar
     6    17    18   ar
     7    18    19   ar
     8    19    20   ar
     9    20    22    1
    10    22    23    3
    11    20    21   ar
    12    15     1    1
    13     1     2    2
    14     1     3    1
    15     3     4   ar
    16     4     5   ar
    17     5     6   ar
    18     6     7   ar
    19     7     8   ar
    20     1     9    1
    21     9    10   ar
    22    10    11   ar
    23    11    12   ar
    24    12    13   ar
    25    13    14   ar
    26    21    16   ar
    27     8     3   ar
    28    14     9   ar
@<TRIPOS>MOLECULE
*****
 26 28 0 0 0
SMALL
GASTEIGER

@<TRIPOS>ATOM
      1 P         140.2796  141.2962  164.2416 P.3     1  UNL1        0.2265
      2 O         139.0258  141.5766  163.4673 O.2     1  UNL1       -0.2903
      3 C         139.6599  140.0462  164.7925 C.ar    1  UNL1        0.0498
      4 C         138.5777  140.1386  165.8270 C.ar    1  UNL1        0.0046
      5 C         137.9581  138.8885  166.3778 C.ar    1  UNL1        0.0002
      6 C         138.4206  137.5461  165.8942 C.ar    1  UNL1        0.0000
      7 C         139.5028  137.4538  164.8597 C.ar    1  UNL1        0.0002
      8 C         140.1224  138.7038  164.3088 C.ar    1  UNL1        0.0046
      9 C         140.8992  142.5463  163.6908 C.ar    1  UNL1        0.0498
     10 C         140.8725  143.8132  164.4933 C.ar    1  UNL1        0.0046
     11 C         141.4921  145.0632  163.9425 C.ar    1  UNL1        0.0002
     12 C         142.1385  145.0463  162.5891 C.ar    1  UNL1        0.0000
     13 C         142.1653  143.7794  161.7865 C.ar    1  UNL1        0.0002
     14 C         141.5456  142.5294  162.3373 C.ar    1  UNL1        0.0046
     15 N         141.5333  141.0159  165.0159 N.pl3   1  UNL1       -0.2616
     16 C         141.5045  141.0162  166.5156 C.ar    1  UNL1        0.0539
     17 C         141.9347  139.7958  167.2743 C.ar    1  UNL1        0.0149
     18 C         141.9058  139.7962  168.7740 C.ar    1  UNL1        0.0020
     19 C         141.4468  141.0169  169.5150 C.ar    1  UNL1        0.0104
     20 C         141.0167  142.2373  168.7564 C.ar    1  UNL1        0.0697
     21 C         141.0455  142.2369  167.2567 C.ar    1  UNL1        0.0251
     22 C         140.5577  143.4580  169.4974 C.1     1  UNL1        0.1005
     23 N         140.0988  144.6788  170.2385 N.1     1  UNL1       -0.1908
     24 C         142.8159  140.7353  164.2904 C.3     1  UNL1        0.0974
     25 C         144.3958  142.7235  164.8392 C.3     1  UNL1        0.0018
     26 C         144.1146  141.2501  164.8367 C.3     1  UNL1        0.0218
@<TRIPOS>BOND
     1    25    26    1
     2    26    24    1
     3    24    15    1
     4    15    16    1
     5    16    17   ar
     6    17    18   ar
     7    18    19   ar
     8    19    20   ar
     9    20    22    1
    10    22    23    3
    11    20    21   ar
    12    15     1    1
    13     1     2    2
    14     1     3    1
    15     3     4   ar
    16     4     5   ar
    17     5     6   ar
    18     6     7   ar
    19     7     8   ar
    20     1     9    1
    21     9    10   ar
    22    10    11   ar
    23    11    12   ar
    24    12    13   ar
    25    13    14   ar
    26    21    16   ar
    27     8     3   ar
    28    14     9   ar
@<TRIPOS>MOLECULE
*****
 26 28 0 0 0
SMALL
GASTEIGER

@<TRIPOS>ATOM
      1 P         140.2460  141.2965  164.2454 P.3     1  UNL1        0.2265
      2 O         138.9919  141.5646  163.4672 O.2     1  UNL1       -0.2903
      3 C         140.8614  142.5435  163.6831 C.ar    1  UNL1        0.0498
      4 C         141.4471  142.5340  162.3022 C.ar    1  UNL1        0.0046
      5 C         142.0625  143.7811  161.7400 C.ar    1  UNL1        0.0002
      6 C         142.0923  145.0376  162.5586 C.ar    1  UNL1        0.0000
      7 C         141.5067  145.0471  163.9395 C.ar    1  UNL1        0.0002
      8 C         140.8913  143.8000  164.5018 C.ar    1  UNL1        0.0046
      9 C         139.6306  140.0494  164.8076 C.ar    1  UNL1        0.0498
     10 C         140.0919  138.7044  164.3302 C.ar    1  UNL1        0.0046
     11 C         139.4764  137.4573  164.8924 C.ar    1  UNL1        0.0002
     12 C         138.3997  137.5554  165.9321 C.ar    1  UNL1        0.0000
     13 C         137.9384  138.9004  166.4095 C.ar    1  UNL1        0.0002
     14 C         138.5538  140.1475  165.8473 C.ar    1  UNL1        0.0046
     15 N         141.5001  141.0284  165.0235 N.pl3   1  UNL1       -0.2616
     16 C         141.4657  141.0241  166.5231 C.ar    1  UNL1        0.0539
     17 C         141.8794  139.7965  167.2793 C.ar    1  UNL1        0.0149
     18 C         141.8451  139.7923  168.7789 C.ar    1  UNL1        0.0020
     19 C         141.3970  141.0157  169.5223 C.ar    1  UNL1        0.0104
     20 C         140.9833  142.2433  168.7661 C.ar    1  UNL1        0.0697
     21 C         141.0177  142.2475  167.2665 C.ar    1  UNL1        0.0251
     22 C         140.5353  143.4666  169.5095 C.1     1  UNL1        0.1005
     23 N         140.0872  144.6900  170.2529 N.1     1  UNL1       -0.1908
     24 C         142.7884  140.7646  164.3020 C.3     1  UNL1        0.0974
     25 C         144.4915  142.7030  164.6060 C.3     1  UNL1        0.0018
     26 C         144.0805  141.2830  164.8605 C.3     1  UNL1        0.0218
@<TRIPOS>BOND
     1    25    26    1
     2    26    24    1
     3    24    15    1
     4    15    16    1
     5    16    17   ar
     6    17    18   ar
     7    18    19   ar
     8    19    20   ar
     9    20    22    1
    10    22    23    3
    11    20    21   ar
    12    15     1    1
    13     1     2    2
    14     1     3    1
    15     3     4   ar
    16     4     5   ar
    17     5     6   ar
    18     6     7   ar
    19     7     8   ar
    20     1     9    1
    21     9    10   ar
    22    10    11   ar
    23    11    12   ar
    24    12    13   ar
    25    13    14   ar
    26    21    16   ar
    27     8     3   ar
    28    14     9   ar
@<TRIPOS>MOLECULE
*****
 26 28 0 0 0
SMALL
GASTEIGER

@<TRIPOS>ATOM
      1 P         141.2937  141.3392  163.6609 P.3     1  UNL1        0.2265
      2 O         142.3796  140.7643  162.8005 O.2     1  UNL1       -0.2903
      3 C         140.4414  140.1351  163.3897 C.ar    1  UNL1        0.0498
      4 C         140.9084  138.7745  163.8149 C.ar    1  UNL1        0.0046
      5 C         140.0561  137.5704  163.5438 C.ar    1  UNL1        0.0002
      6 C         138.7367  137.7267  162.8475 C.ar    1  UNL1        0.0000
      7 C         138.2697  139.0872  162.4223 C.ar    1  UNL1        0.0002
      8 C         139.1220  140.2914  162.6935 C.ar    1  UNL1        0.0046
      9 C         142.1460  142.5434  163.9320 C.ar    1  UNL1        0.0498
     10 C         141.7441  143.8838  163.3918 C.ar    1  UNL1        0.0046
     11 C         142.5964  145.0879  163.6629 C.ar    1  UNL1        0.0002
     12 C         143.8506  144.9518  164.4743 C.ar    1  UNL1        0.0000
     13 C         144.2525  143.6114  165.0145 C.ar    1  UNL1        0.0002
     14 C         143.4002  142.4072  164.7434 C.ar    1  UNL1        0.0046
     15 N         140.2078  141.9141  164.5212 N.pl3   1  UNL1       -0.2616
     16 C         140.1201  141.5367  165.9704 C.ar    1  UNL1        0.0539
     17 C         139.3459  140.3200  166.3829 C.ar    1  UNL1        0.0149
     18 C         139.2582  139.9425  167.8320 C.ar    1  UNL1        0.0020
     19 C         139.9447  140.7818  168.8685 C.ar    1  UNL1        0.0104
     20 C         140.7189  141.9985  168.4559 C.ar    1  UNL1        0.0697
     21 C         140.8066  142.3760  167.0069 C.ar    1  UNL1        0.0251
     22 C         141.4054  142.8378  169.4924 C.1     1  UNL1        0.1005
     23 N         142.0919  143.6771  170.5289 N.1     1  UNL1       -0.1908
     24 C         139.2095  142.8665  163.9326 C.3     1  UNL1        0.0974
     25 C         138.6088  144.9124  165.4169 C.3     1  UNL1        0.0018
     26 C         138.2408  143.5842  164.8251 C.3     1  UNL1        0.0218
@<TRIPOS>BOND
     1    25    26    1
     2    26    24    1
     3    24    15    1
     4    15    16    1
     5    16    17   ar
     6    17    18   ar
     7    18    19   ar
     8    19    20   ar
     9    20    22    1
    10    22    23    3
    11    20    21   ar
    12    15     1    1
    13     1     2    2
    14     1     3    1
    15     3     4   ar
    16     4     5   ar
    17     5     6   ar
    18     6     7   ar
    19     7     8   ar
    20     1     9    1
    21     9    10   ar
    22    10    11   ar
    23    11    12   ar
    24    12    13   ar
    25    13    14   ar
    26    21    16   ar
    27     8     3   ar
    28    14     9   ar
@<TRIPOS>MOLECULE
*****
 26 28 0 0 0
SMALL
GASTEIGER

@<TRIPOS>ATOM
      1 P         141.6553  141.0746  164.0756 P.3     1  UNL1        0.2265
      2 O         142.5053  140.5620  162.9510 O.2     1  UNL1       -0.2903
      3 C         142.3184  142.4156  163.9656 C.ar    1  UNL1        0.0498
      4 C         141.8445  143.4049  162.9426 C.ar    1  UNL1        0.0046
      5 C         142.5076  144.7459  162.8325 C.ar    1  UNL1        0.0002
      6 C         143.6446  145.0975  163.7455 C.ar    1  UNL1        0.0000
      7 C         144.1185  144.1082  164.7686 C.ar    1  UNL1        0.0002
      8 C         143.4553  142.7672  164.8786 C.ar    1  UNL1        0.0046
      9 C         140.9922  139.7337  164.1856 C.ar    1  UNL1        0.0498
     10 C         141.8040  138.5220  164.5360 C.ar    1  UNL1        0.0046
     11 C         141.1409  137.1811  164.6460 C.ar    1  UNL1        0.0002
     12 C         139.6659  137.0517  164.4056 C.ar    1  UNL1        0.0000
     13 C         138.8541  138.2634  164.0552 C.ar    1  UNL1        0.0002
     14 C         139.5172  139.6044  163.9452 C.ar    1  UNL1        0.0046
     15 N         140.8052  141.5872  165.2001 N.pl3   1  UNL1       -0.2616
     16 C         141.0263  141.0855  166.5964 C.ar    1  UNL1        0.0539
     17 C         142.4211  140.8624  167.1010 C.ar    1  UNL1        0.0149
     18 C         142.6422  140.3607  168.4972 C.ar    1  UNL1        0.0020
     19 C         141.4685  140.0822  169.3888 C.ar    1  UNL1        0.0104
     20 C         140.0737  140.3054  168.8841 C.ar    1  UNL1        0.0697
     21 C         139.8526  140.8070  167.4879 C.ar    1  UNL1        0.0251
     22 C         138.9000  140.0269  169.7757 C.1     1  UNL1        0.1005
     23 N         137.7263  139.7484  170.6672 N.1     1  UNL1       -0.1908
     24 C         139.7340  142.6015  164.9285 C.3     1  UNL1        0.0974
     25 C         138.6048  144.8767  165.4749 C.3     1  UNL1        0.0018
     26 C         139.6026  143.8081  165.8100 C.3     1  UNL1        0.0218
@<TRIPOS>BOND
     1    25    26    1
     2    26    24    1
     3    24    15    1
     4    15    16    1
     5    16    17   ar
     6    17    18   ar
     7    18    19   ar
     8    19    20   ar
     9    20    22    1
    10    22    23    3
    11    20    21   ar
    12    15     1    1
    13     1     2    2
    14     1     3    1
    15     3     4   ar
    16     4     5   ar
    17     5     6   ar
    18     6     7   ar
    19     7     8   ar
    20     1     9    1
    21     9    10   ar
    22    10    11   ar
    23    11    12   ar
    24    12    13   ar
    25    13    14   ar
    26    21    16   ar
    27     8     3   ar
    28    14     9   ar
@<TRIPOS>MOLECULE
*****
 26 28 0 0 0
SMALL
GASTEIGER

@<TRIPOS>ATOM
      1 P         141.2813  141.3518  163.6542 P.3     1  UNL1        0.2265
      2 O         142.3694  140.7871  162.7898 O.2     1  UNL1       -0.2903
      3 C         142.1145  142.5736  163.9049 C.ar    1  UNL1        0.0498
      4 C         141.6846  143.9007  163.3537 C.ar    1  UNL1        0.0046
      5 C         142.5179  145.1225  163.6045 C.ar    1  UNL1        0.0002
      6 C         143.7811  145.0172  164.4065 C.ar    1  UNL1        0.0000
      7 C         144.2110  143.6901  164.9578 C.ar    1  UNL1        0.0002
      8 C         143.3777  142.4683  164.7070 C.ar    1  UNL1        0.0046
      9 C         140.4480  140.1300  163.4034 C.ar    1  UNL1        0.0498
     10 C         140.9404  138.7832  163.8432 C.ar    1  UNL1        0.0046
     11 C         140.1072  137.5614  163.5924 C.ar    1  UNL1        0.0002
     12 C         138.7815  137.6864  162.9018 C.ar    1  UNL1        0.0000
     13 C         138.2891  139.0333  162.4620 C.ar    1  UNL1        0.0002
     14 C         139.1224  140.2551  162.7128 C.ar    1  UNL1        0.0046
     15 N         140.1932  141.9165  164.5185 N.pl3   1  UNL1       -0.2616
     16 C         140.1129  141.5365  165.9674 C.ar    1  UNL1        0.0539
     17 C         139.3395  140.3199  166.3819 C.ar    1  UNL1        0.0149
     18 C         139.2594  139.9399  167.8307 C.ar    1  UNL1        0.0020
     19 C         139.9525  140.7764  168.8650 C.ar    1  UNL1        0.0104
     20 C         140.7259  141.9930  168.4505 C.ar    1  UNL1        0.0697
     21 C         140.8061  142.3730  167.0017 C.ar    1  UNL1        0.0251
     22 C         141.4191  142.8295  169.4848 C.1     1  UNL1        0.1005
     23 N         142.1123  143.6660  170.5190 N.1     1  UNL1       -0.1908
     24 C         139.1853  142.8612  163.9340 C.3     1  UNL1        0.0974
     25 C         138.6169  144.9201  165.4132 C.3     1  UNL1        0.0018
     26 C         138.2321  143.5915  164.8331 C.3     1  UNL1        0.0218
@<TRIPOS>BOND
     1    25    26    1
     2    26    24    1
     3    24    15    1
     4    15    16    1
     5    16    17   ar
     6    17    18   ar
     7    18    19   ar
     8    19    20   ar
     9    20    22    1
    10    22    23    3
    11    20    21   ar
    12    15     1    1
    13     1     2    2
    14     1     3    1
    15     3     4   ar
    16     4     5   ar
    17     5     6   ar
    18     6     7   ar
    19     7     8   ar
    20     1     9    1
    21     9    10   ar
    22    10    11   ar
    23    11    12   ar
    24    12    13   ar
    25    13    14   ar
    26    21    16   ar
    27     8     3   ar
    28    14     9   ar
@<TRIPOS>MOLECULE
*****
 26 28 0 0 0
SMALL
GASTEIGER

@<TRIPOS>ATOM
      1 P         141.1674  141.4258  163.2038 P.3     1  UNL1        0.2265
      2 O         142.2267  140.8858  162.2893 O.2     1  UNL1       -0.2903
      3 C         142.0812  142.5474  163.6000 C.ar    1  UNL1        0.0498
      4 C         143.3332  142.2572  164.3733 C.ar    1  UNL1        0.0046
      5 C         144.2471  143.3788  164.7695 C.ar    1  UNL1        0.0002
      6 C         143.9089  144.7906  164.3923 C.ar    1  UNL1        0.0000
      7 C         142.6569  145.0808  163.6189 C.ar    1  UNL1        0.0002
      8 C         141.7430  143.9592  163.2227 C.ar    1  UNL1        0.0046
      9 C         140.2536  140.3042  162.8076 C.ar    1  UNL1        0.0498
     10 C         140.6173  138.8875  163.1399 C.ar    1  UNL1        0.0046
     11 C         139.7035  137.7659  162.7437 C.ar    1  UNL1        0.0002
     12 C         138.4259  138.0610  162.0153 C.ar    1  UNL1        0.0000
     13 C         138.0621  139.4778  161.6831 C.ar    1  UNL1        0.0002
     14 C         138.9760  140.5994  162.0793 C.ar    1  UNL1        0.0046
     15 N         140.1081  141.9658  164.1183 N.pl3   1  UNL1       -0.2616
     16 C         139.9356  141.3861  165.4910 C.ar    1  UNL1        0.0539
     17 C         140.7611  141.9019  166.6322 C.ar    1  UNL1        0.0149
     18 C         140.5885  141.3221  168.0048 C.ar    1  UNL1        0.0020
     19 C         139.5905  140.2265  168.2361 C.ar    1  UNL1        0.0104
     20 C         138.7650  139.7107  167.0949 C.ar    1  UNL1        0.0697
     21 C         138.9375  140.2904  165.7223 C.ar    1  UNL1        0.0251
     22 C         137.7669  138.6151  167.3263 C.1     1  UNL1        0.1005
     23 N         136.7688  137.5194  167.5576 N.1     1  UNL1       -0.1908
     24 C         139.2214  143.0856  163.6602 C.3     1  UNL1        0.0974
     25 C         138.6087  144.9022  165.4137 C.3     1  UNL1        0.0018
     26 C         138.2313  143.6942  164.6086 C.3     1  UNL1        0.0218
@<TRIPOS>BOND
     1    25    26    1
     2    26    24    1
     3    24    15    1
     4    15    16    1
     5    16    17   ar
     6    17    18   ar
     7    18    19   ar
     8    19    20   ar
     9    20    22    1
    10    22    23    3
    11    20    21   ar
    12    15     1    1
    13     1     2    2
    14     1     3    1
    15     3     4   ar
    16     4     5   ar
    17     5     6   ar
    18     6     7   ar
    19     7     8   ar
    20     1     9    1
    21     9    10   ar
    22    10    11   ar
    23    11    12   ar
    24    12    13   ar
    25    13    14   ar
    26    21    16   ar
    27     8     3   ar
    28    14     9   ar
@<TRIPOS>MOLECULE
*****
 26 28 0 0 0
SMALL
GASTEIGER

@<TRIPOS>ATOM
      1 P         141.3147  141.8974  164.0910 P.3     1  UNL1        0.2265
      2 O         141.8080  142.8435  163.0368 O.2     1  UNL1       -0.2903
      3 C         142.5848  141.1076  163.9765 C.ar    1  UNL1        0.0498
      4 C         143.8956  141.7379  164.3432 C.ar    1  UNL1        0.0046
      5 C         145.1657  140.9481  164.2287 C.ar    1  UNL1        0.0002
      6 C         145.1250  139.5280  163.7475 C.ar    1  UNL1        0.0000
      7 C         143.8142  138.8977  163.3808 C.ar    1  UNL1        0.0002
      8 C         142.5441  139.6875  163.4953 C.ar    1  UNL1        0.0046
      9 C         140.0446  142.6871  164.2056 C.ar    1  UNL1        0.0498
     10 C         138.7609  142.1246  163.6714 C.ar    1  UNL1        0.0046
     11 C         137.4908  142.9143  163.7859 C.ar    1  UNL1        0.0002
     12 C         137.5045  144.2667  164.4346 C.ar    1  UNL1        0.0000
     13 C         138.7882  144.8293  164.9688 C.ar    1  UNL1        0.0002
     14 C         140.0583  144.0395  164.8543 C.ar    1  UNL1        0.0046
     15 N         140.8214  140.9512  165.1453 N.pl3   1  UNL1       -0.2616
     16 C         141.2331  141.1408  166.5752 C.ar    1  UNL1        0.0539
     17 C         142.1994  140.1855  167.2105 C.ar    1  UNL1        0.0149
     18 C         142.6110  140.3751  168.6403 C.ar    1  UNL1        0.0020
     19 C         142.0564  141.5201  169.4349 C.ar    1  UNL1        0.0104
     20 C         141.0902  142.4755  168.7997 C.ar    1  UNL1        0.0697
     21 C         140.6785  142.2858  167.3698 C.ar    1  UNL1        0.0251
     22 C         140.5355  143.6205  169.5943 C.1     1  UNL1        0.1005
     23 N         139.9809  144.7655  170.3888 N.1     1  UNL1       -0.1908
     24 C         139.9165  139.8155  164.7697 C.3     1  UNL1        0.0974
     25 C         138.0318  139.1784  166.4406 C.3     1  UNL1        0.0018
     26 C         139.3751  138.9050  165.8318 C.3     1  UNL1        0.0218
@<TRIPOS>BOND
     1    25    26    1
     2    26    24    1
     3    24    15    1
     4    15    16    1
     5    16    17   ar
     6    17    18   ar
     7    18    19   ar
     8    19    20   ar
     9    20    22    1
    10    22    23    3
    11    20    21   ar
    12    15     1    1
    13     1     2    2
    14     1     3    1
    15     3     4   ar
    16     4     5   ar
    17     5     6   ar
    18     6     7   ar
    19     7     8   ar
    20     1     9    1
    21     9    10   ar
    22    10    11   ar
    23    11    12   ar
    24    12    13   ar
    25    13    14   ar
    26    21    16   ar
    27     8     3   ar
    28    14     9   ar
