@<TRIPOS>MOLECULE
*****
 40 43 0 0 0
SMALL
GASTEIGER

@<TRIPOS>ATOM
      1 C         143.0195  141.1985  159.0137 C.2     1  UNL1        0.2485
      2 O         143.7184  141.1284  160.3391 O.2     1  UNL1       -0.2726
      3 N         141.6769  141.8590  158.9080 N.am    1  UNL1       -0.2823
      4 H         141.2181  141.9051  158.0381 H       1  UNL1        0.1549
      5 C         147.2528  141.6824  155.3422 C.ar    1  UNL1        0.1054
      6 C         146.9652  142.5746  156.5131 C.ar    1  UNL1        0.0181
      7 C         145.7843  142.2970  157.3953 C.ar    1  UNL1       -0.0011
      8 C         144.8909  141.1273  157.1066 C.ar    1  UNL1        0.0022
      9 C         145.1785  140.2351  155.9356 C.ar    1  UNL1       -0.0030
     10 C         146.3595  140.5127  155.0534 C.ar    1  UNL1        0.0155
     11 C         144.1283  139.1645  155.8995 C.3     1  UNL1        0.1207
     12 N         143.1918  139.3952  157.0482 N.am    1  UNL1       -0.2635
     13 C         141.9941  138.5595  157.3908 C.2     1  UNL1        0.2537
     14 O         141.1462  138.9144  158.5762 O.2     1  UNL1       -0.2722
     15 C         143.6630  140.6082  157.7942 C.3     1  UNL1        0.1751
     16 C         149.6148  142.2376  153.5778 C.3     1  UNL1        0.1816
     17 S         148.4338  141.9600  154.4600 S.O2    1  UNL1        0.0104
     18 O         149.3507  141.7952  155.6356 O.2     1  UNL1       -0.1686
     19 O         147.5169  142.1248  153.2844 O.2     1  UNL1       -0.1686
     20 C         141.6443  137.3690  156.5480 C.3     1  UNL1        0.1935
     21 C         140.6392  137.0913  155.4698 C.3     1  UNL1        0.0711
     22 C         141.1497  135.6853  155.3561 C.3     1  UNL1        0.1457
     23 O         142.1548  135.9632  156.4343 O.3     1  UNL1       -0.3469
     24 C         141.0333  142.4494  160.1275 C.ar    1  UNL1        0.0503
     25 C         140.4180  141.5517  161.1598 C.ar    1  UNL1        0.0144
     26 C         139.7744  142.1420  162.3794 C.ar    1  UNL1       -0.0002
     27 C         139.7461  143.6300  162.5667 C.ar    1  UNL1        0.0182
     28 C         140.3614  144.5276  161.5344 C.ar    1  UNL1       -0.0002
     29 C         141.0050  143.9373  160.3149 C.ar    1  UNL1        0.0144
     30 C         139.1025  144.2203  163.7862 C.3     1  UNL1        0.2827
     31 O         137.9497  144.6912  162.9500 O.3     1  UNL1       -0.3692
     32 H         138.0936  144.4328  162.0262 H       1  UNL1        0.2112
     33 C         138.4589  144.8106  165.0058 C.3     1  UNL1        0.4311
     34 F         137.8153  145.4010  166.2253 F       1  UNL1       -0.1669
     35 F         139.0780  145.4228  165.1690 F       1  UNL1       -0.1669
     36 F         137.3236  143.8387  164.8771 F       1  UNL1       -0.1669
     37 C         140.2552  143.7494  164.6225 C.3     1  UNL1        0.4311
     38 F         141.4080  143.2786  165.4588 F       1  UNL1       -0.1669
     39 F         139.8354  143.0759  165.0157 F       1  UNL1       -0.1669
     40 F         141.3666  144.6944  164.2736 F       1  UNL1       -0.1669
@<TRIPOS>BOND
     1    16    17    1
     2    17    18    2
     3    17    19    2
     4    17     5    1
     5     5     6   ar
     6     6     7   ar
     7     7     8   ar
     8     8     9   ar
     9     9    10   ar
    10     9    11    1
    11    11    12    1
    12    12    13   am
    13    13    14    2
    14    13    20    1
    15    20    21    1
    16    21    22    1
    17    22    23    1
    18    12    15    1
    19    15     1    1
    20     1     2    2
    21     1     3   am
    22     3    24    1
    23    24    25   ar
    24    25    26   ar
    25    26    27   ar
    26    27    30    1
    27    30    31    1
    28    30    33    1
    29    33    34    1
    30    33    35    1
    31    33    36    1
    32    30    37    1
    33    37    38    1
    34    37    39    1
    35    37    40    1
    36    27    28   ar
    37    28    29   ar
    38    10     5   ar
    39    23    20    1
    40    29    24   ar
    41    15     8    1
    42     3     4    1
    43    31    32    1
@<TRIPOS>MOLECULE
*****
 40 43 0 0 0
SMALL
GASTEIGER

@<TRIPOS>ATOM
      1 C         142.5996  137.4136  157.6133 C.2     1  UNL1        0.2485
      2 O         143.7243  138.3286  157.2290 O.2     1  UNL1       -0.2726
      3 N         142.0571  137.4385  159.0116 N.am    1  UNL1       -0.2823
      4 H         141.3189  136.8379  159.2639 H       1  UNL1        0.1549
      5 C         143.2120  132.4492  155.0413 C.ar    1  UNL1        0.1054
      6 C         144.1114  133.0443  156.0838 C.ar    1  UNL1        0.0181
      7 C         143.7956  134.3895  156.6675 C.ar    1  UNL1       -0.0011
      8 C         142.5803  135.1395  156.2088 C.ar    1  UNL1        0.0022
      9 C         141.6809  134.5443  155.1663 C.ar    1  UNL1       -0.0030
     10 C         141.9967  133.1992  154.5825 C.ar    1  UNL1        0.0155
     11 C         140.5621  135.5109  154.9127 C.3     1  UNL1        0.1207
     12 N         140.7701  136.7033  155.7986 N.am    1  UNL1       -0.2635
     13 C         139.8860  137.9131  155.8707 C.2     1  UNL1        0.2537
     14 O         140.2229  139.0332  156.8097 O.2     1  UNL1       -0.2722
     15 C         142.0174  136.4738  156.5995 C.3     1  UNL1        0.1751
     16 C         143.8438  129.7589  153.8738 C.3     1  UNL1        0.1816
     17 S         143.5279  131.1040  154.4575 S.O2    1  UNL1        0.0104
     18 O         142.3260  131.2085  153.5662 O.2     1  UNL1       -0.1686
     19 O         144.7299  130.9995  155.3488 O.2     1  UNL1       -0.1686
     20 C         138.6651  138.0025  155.0040 C.3     1  UNL1        0.1935
     21 C         138.2661  138.8261  153.8155 C.3     1  UNL1        0.0711
     22 C         136.9384  138.1289  153.7782 C.3     1  UNL1        0.1457
     23 O         137.3375  137.3054  154.9667 O.3     1  UNL1       -0.3469
     24 C         142.6394  138.3783  160.0254 C.ar    1  UNL1        0.0503
     25 C         143.6945  137.8960  160.9762 C.ar    1  UNL1        0.0144
     26 C         144.2768  138.8358  161.9899 C.ar    1  UNL1       -0.0002
     27 C         143.8039  140.2579  162.0530 C.ar    1  UNL1        0.0182
     28 C         142.7487  140.7401  161.1022 C.ar    1  UNL1       -0.0002
     29 C         142.1665  139.8003  160.0884 C.ar    1  UNL1        0.0144
     30 C         144.3861  141.1977  163.0668 C.3     1  UNL1        0.2827
     31 O         144.8645  142.0928  161.9623 O.3     1  UNL1       -0.3692
     32 H         144.6126  141.7127  161.1061 H       1  UNL1        0.2112
     33 C         144.9684  142.1374  164.0806 C.3     1  UNL1        0.4311
     34 F         145.5506  143.0772  165.0943 F       1  UNL1       -0.1669
     35 F         144.2001  142.4277  164.4124 F       1  UNL1       -0.1669
     36 F         146.3506  141.7577  163.6388 F       1  UNL1       -0.1669
     37 C         143.9078  140.3025  164.1713 C.3     1  UNL1        0.4311
     38 F         143.4295  139.4074  165.2758 F       1  UNL1       -0.1669
     39 F         143.0434  140.4743  164.0829 F       1  UNL1       -0.1669
     40 F         145.1661  139.6948  164.7166 F       1  UNL1       -0.1669
@<TRIPOS>BOND
     1    16    17    1
     2    17    18    2
     3    17    19    2
     4    17     5    1
     5     5     6   ar
     6     6     7   ar
     7     7     8   ar
     8     8     9   ar
     9     9    10   ar
    10     9    11    1
    11    11    12    1
    12    12    13   am
    13    13    14    2
    14    13    20    1
    15    20    21    1
    16    21    22    1
    17    22    23    1
    18    12    15    1
    19    15     1    1
    20     1     2    2
    21     1     3   am
    22     3    24    1
    23    24    25   ar
    24    25    26   ar
    25    26    27   ar
    26    27    30    1
    27    30    31    1
    28    30    33    1
    29    33    34    1
    30    33    35    1
    31    33    36    1
    32    30    37    1
    33    37    38    1
    34    37    39    1
    35    37    40    1
    36    27    28   ar
    37    28    29   ar
    38    10     5   ar
    39    23    20    1
    40    29    24   ar
    41    15     8    1
    42     3     4    1
    43    31    32    1
@<TRIPOS>MOLECULE
*****
 40 43 0 0 0
SMALL
GASTEIGER

@<TRIPOS>ATOM
      1 C         142.5291  137.9398  158.1827 C.2     1  UNL1        0.2485
      2 O         143.6872  138.8407  157.8711 O.2     1  UNL1       -0.2726
      3 N         141.8906  137.9812  159.5394 N.am    1  UNL1       -0.2823
      4 H         141.1305  137.3899  159.7439 H       1  UNL1        0.1549
      5 C         143.2963  132.9691  155.6649 C.ar    1  UNL1        0.1054
      6 C         144.1306  133.5668  156.7587 C.ar    1  UNL1        0.0181
      7 C         143.7800  134.9134  157.3188 C.ar    1  UNL1       -0.0011
      8 C         142.5950  135.6622  156.7851 C.ar    1  UNL1        0.0022
      9 C         141.7606  135.0645  155.6913 C.ar    1  UNL1       -0.0030
     10 C         142.1112  133.7179  155.1312 C.ar    1  UNL1        0.0155
     11 C         140.6594  136.0304  155.3678 C.3     1  UNL1        0.1207
     12 N         140.8133  137.2251  156.2617 N.am    1  UNL1       -0.2635
     13 C         139.9267  138.4349  156.2770 C.2     1  UNL1        0.2537
     14 O         140.2060  139.5574  157.2319 O.2     1  UNL1       -0.2722
     15 C         142.0095  136.9975  157.1377 C.3     1  UNL1        0.1751
     16 C         143.9976  130.2759  154.5446 C.3     1  UNL1        0.1816
     17 S         143.6469  131.6225  155.1047 S.O2    1  UNL1        0.0104
     18 O         145.0067  131.7161  155.7310 O.2     1  UNL1       -0.1686
     19 O         142.2871  131.5289  154.4784 O.2     1  UNL1       -0.1686
     20 C         138.7607  138.5222  155.3373 C.3     1  UNL1        0.1935
     21 C         138.3644  139.4430  154.2215 C.3     1  UNL1        0.0711
     22 C         137.1119  138.6456  154.0084 C.3     1  UNL1        0.1457
     23 O         137.5083  137.7248  155.1242 O.3     1  UNL1       -0.3469
     24 C         142.4102  138.9235  160.5844 C.ar    1  UNL1        0.0503
     25 C         141.7567  140.2592  160.7815 C.ar    1  UNL1        0.0144
     26 C         142.2762  141.2015  161.8265 C.ar    1  UNL1       -0.0002
     27 C         143.4493  140.8082  162.6745 C.ar    1  UNL1        0.0182
     28 C         144.1028  139.4725  162.4774 C.ar    1  UNL1       -0.0002
     29 C         143.5832  138.5302  161.4324 C.ar    1  UNL1        0.0144
     30 C         143.9689  141.7505  163.7195 C.3     1  UNL1        0.2827
     31 O         143.5411  140.7950  164.7938 O.3     1  UNL1       -0.3692
     32 H         143.1321  140.0145  164.3882 H       1  UNL1        0.2112
     33 C         144.4885  142.6928  164.7645 C.3     1  UNL1        0.4311
     34 F         145.0081  143.6351  165.8096 F       1  UNL1       -0.1669
     35 F         145.3483  142.6054  164.5708 F       1  UNL1       -0.1669
     36 F         143.0852  142.9576  165.2234 F       1  UNL1       -0.1669
     37 C         144.3967  142.7060  162.6453 C.3     1  UNL1        0.4311
     38 F         144.8245  143.6614  161.5710 F       1  UNL1       -0.1669
     39 F         143.7842  143.3262  162.8022 F       1  UNL1       -0.1669
     40 F         145.5652  142.0242  161.9974 F       1  UNL1       -0.1669
@<TRIPOS>BOND
     1    16    17    1
     2    17    18    2
     3    17    19    2
     4    17     5    1
     5     5     6   ar
     6     6     7   ar
     7     7     8   ar
     8     8     9   ar
     9     9    10   ar
    10     9    11    1
    11    11    12    1
    12    12    13   am
    13    13    14    2
    14    13    20    1
    15    20    21    1
    16    21    22    1
    17    22    23    1
    18    12    15    1
    19    15     1    1
    20     1     2    2
    21     1     3   am
    22     3    24    1
    23    24    25   ar
    24    25    26   ar
    25    26    27   ar
    26    27    30    1
    27    30    31    1
    28    30    33    1
    29    33    34    1
    30    33    35    1
    31    33    36    1
    32    30    37    1
    33    37    38    1
    34    37    39    1
    35    37    40    1
    36    27    28   ar
    37    28    29   ar
    38    10     5   ar
    39    23    20    1
    40    29    24   ar
    41    15     8    1
    42     3     4    1
    43    31    32    1
@<TRIPOS>MOLECULE
*****
 40 43 0 0 0
SMALL
GASTEIGER

@<TRIPOS>ATOM
      1 C         142.0250  140.5049  161.8487 C.2     1  UNL1        0.2485
      2 O         143.2728  140.3453  162.6657 O.2     1  UNL1       -0.2726
      3 N         140.6903  140.5926  162.5275 N.am    1  UNL1       -0.2823
      4 H         139.8713  140.6973  161.9913 H       1  UNL1        0.1549
      5 C         142.8156  137.5504  157.1283 C.ar    1  UNL1        0.1054
      6 C         142.8082  137.0249  158.5332 C.ar    1  UNL1        0.0181
      7 C         142.5806  137.9611  159.6829 C.ar    1  UNL1       -0.0011
      8 C         142.3602  139.4227  159.4277 C.ar    1  UNL1        0.0022
      9 C         142.3675  139.9481  158.0228 C.ar    1  UNL1       -0.0030
     10 C         142.5952  139.0119  156.8731 C.ar    1  UNL1        0.0155
     11 C         142.1238  141.4271  158.0797 C.3     1  UNL1        0.1207
     12 N         141.9658  141.8157  159.5199 N.am    1  UNL1       -0.2635
     13 C         141.7071  143.2001  160.0363 C.2     1  UNL1        0.2537
     14 O         141.5715  143.4372  161.5112 O.2     1  UNL1       -0.2722
     15 C         142.1119  140.5769  160.3529 C.3     1  UNL1        0.1751
     16 C         143.2709  135.6781  154.8289 C.3     1  UNL1        0.1816
     17 S         143.0432  136.6142  155.9786 S.O2    1  UNL1        0.0104
     18 O         141.6914  136.0054  156.2067 O.2     1  UNL1       -0.1686
     19 O         144.3950  137.2230  155.7506 O.2     1  UNL1       -0.1686
     20 C         141.5841  144.3473  159.0778 C.3     1  UNL1        0.1935
     21 C         140.4450  145.1582  158.5347 C.3     1  UNL1        0.0711
     22 C         141.4102  145.9697  157.7223 C.3     1  UNL1        0.1457
     23 O         142.5492  145.1588  158.2655 O.3     1  UNL1       -0.3469
     24 C         140.6034  140.5206  164.0233 C.ar    1  UNL1        0.0503
     25 C         140.6014  141.7814  164.8359 C.ar    1  UNL1        0.0144
     26 C         140.5145  141.7094  166.3317 C.ar    1  UNL1       -0.0002
     27 C         140.4297  140.3767  167.0148 C.ar    1  UNL1        0.0182
     28 C         140.4317  139.1160  166.2021 C.ar    1  UNL1       -0.0002
     29 C         140.5186  139.1879  164.7064 C.ar    1  UNL1        0.0144
     30 C         140.3428  140.3048  168.5106 C.3     1  UNL1        0.2827
     31 O         138.9856  139.6754  168.4014 O.3     1  UNL1       -0.3692
     32 H         138.7460  139.5837  167.4660 H       1  UNL1        0.2112
     33 C         140.2559  140.2328  170.0063 C.3     1  UNL1        0.4311
     34 F         140.1690  140.1609  171.5020 F       1  UNL1       -0.1669
     35 F         140.8588  139.5938  170.1188 F       1  UNL1       -0.1669
     36 F         139.2165  141.3143  169.9980 F       1  UNL1       -0.1669
     37 C         141.7000  140.9341  168.6197 C.3     1  UNL1        0.4311
     38 F         143.0572  141.5635  168.7288 F       1  UNL1       -0.1669
     39 F         141.4292  141.7245  168.9138 F       1  UNL1       -0.1669
     40 F         142.6384  139.8529  168.1722 F       1  UNL1       -0.1669
@<TRIPOS>BOND
     1    16    17    1
     2    17    18    2
     3    17    19    2
     4    17     5    1
     5     5     6   ar
     6     6     7   ar
     7     7     8   ar
     8     8     9   ar
     9     9    10   ar
    10     9    11    1
    11    11    12    1
    12    12    13   am
    13    13    14    2
    14    13    20    1
    15    20    21    1
    16    21    22    1
    17    22    23    1
    18    12    15    1
    19    15     1    1
    20     1     2    2
    21     1     3   am
    22     3    24    1
    23    24    25   ar
    24    25    26   ar
    25    26    27   ar
    26    27    30    1
    27    30    31    1
    28    30    33    1
    29    33    34    1
    30    33    35    1
    31    33    36    1
    32    30    37    1
    33    37    38    1
    34    37    39    1
    35    37    40    1
    36    27    28   ar
    37    28    29   ar
    38    10     5   ar
    39    23    20    1
    40    29    24   ar
    41    15     8    1
    42     3     4    1
    43    31    32    1
@<TRIPOS>MOLECULE
*****
 40 43 0 0 0
SMALL
GASTEIGER

@<TRIPOS>ATOM
      1 C         141.5593  138.9953  158.6262 C.2     1  UNL1        0.2485
      2 O         142.2664  138.0369  159.5380 O.2     1  UNL1       -0.2726
      3 N         140.3998  139.7988  159.1362 N.am    1  UNL1       -0.2823
      4 H         139.9356  140.4278  158.5379 H       1  UNL1        0.1549
      5 C         145.5787  141.0368  155.2628 C.ar    1  UNL1        0.1054
      6 C         145.5269  141.1145  156.7599 C.ar    1  UNL1        0.0181
      7 C         144.3715  140.5117  157.5026 C.ar    1  UNL1       -0.0011
      8 C         143.2680  139.8311  156.7483 C.ar    1  UNL1        0.0022
      9 C         143.3198  139.7534  155.2512 C.ar    1  UNL1       -0.0030
     10 C         144.4752  140.3563  154.5085 C.ar    1  UNL1        0.0155
     11 C         142.0955  139.0247  154.7821 C.3     1  UNL1        0.1207
     12 N         141.2869  138.6520  155.9893 N.am    1  UNL1       -0.2635
     13 C         139.9827  137.9110  155.9827 C.2     1  UNL1        0.2537
     14 O         139.2857  137.6078  157.2758 O.2     1  UNL1       -0.2722
     15 C         142.0116  139.1504  157.2045 C.3     1  UNL1        0.1751
     16 C         147.8895  142.2425  153.7773 C.3     1  UNL1        0.1816
     17 S         146.7341  141.6397  154.5201 S.O2    1  UNL1        0.0104
     18 O         147.3016  142.1452  155.8133 O.2     1  UNL1       -0.1686
     19 O         146.1666  141.1341  153.2269 O.2     1  UNL1       -0.1686
     20 C         139.3755  137.4732  154.6828 C.3     1  UNL1        0.1935
     21 C         138.0076  137.5496  154.0722 C.3     1  UNL1        0.0711
     22 C         138.5168  136.8541  152.8445 C.3     1  UNL1        0.1457
     23 O         139.8847  136.7778  153.4553 O.3     1  UNL1       -0.3469
     24 C         139.9475  139.6437  160.5580 C.ar    1  UNL1        0.0503
     25 C         138.7375  138.8154  160.8740 C.ar    1  UNL1        0.0144
     26 C         138.2852  138.6603  162.2957 C.ar    1  UNL1       -0.0002
     27 C         139.0428  139.3335  163.4015 C.ar    1  UNL1        0.0182
     28 C         140.2527  140.1618  163.0855 C.ar    1  UNL1       -0.0002
     29 C         140.7051  140.3169  161.6638 C.ar    1  UNL1        0.0144
     30 C         138.5904  139.1785  164.8232 C.3     1  UNL1        0.2827
     31 O         137.6914  140.3690  164.6671 O.3     1  UNL1       -0.3692
     32 H         137.7734  140.7202  163.7666 H       1  UNL1        0.2112
     33 C         138.1381  139.0234  166.2450 C.3     1  UNL1        0.4311
     34 F         137.6858  138.8683  167.6667 F       1  UNL1       -0.1669
     35 F         137.6969  138.2632  166.1356 F       1  UNL1       -0.1669
     36 F         138.8354  140.3014  166.6062 F       1  UNL1       -0.1669
     37 C         139.4894  137.9879  164.9794 C.3     1  UNL1        0.4311
     38 F         140.3884  136.7974  165.1356 F       1  UNL1       -0.1669
     39 F         138.9767  137.4081  164.5487 F       1  UNL1       -0.1669
     40 F         140.6630  138.5177  165.7488 F       1  UNL1       -0.1669
@<TRIPOS>BOND
     1    16    17    1
     2    17    18    2
     3    17    19    2
     4    17     5    1
     5     5     6   ar
     6     6     7   ar
     7     7     8   ar
     8     8     9   ar
     9     9    10   ar
    10     9    11    1
    11    11    12    1
    12    12    13   am
    13    13    14    2
    14    13    20    1
    15    20    21    1
    16    21    22    1
    17    22    23    1
    18    12    15    1
    19    15     1    1
    20     1     2    2
    21     1     3   am
    22     3    24    1
    23    24    25   ar
    24    25    26   ar
    25    26    27   ar
    26    27    30    1
    27    30    31    1
    28    30    33    1
    29    33    34    1
    30    33    35    1
    31    33    36    1
    32    30    37    1
    33    37    38    1
    34    37    39    1
    35    37    40    1
    36    27    28   ar
    37    28    29   ar
    38    10     5   ar
    39    23    20    1
    40    29    24   ar
    41    15     8    1
    42     3     4    1
    43    31    32    1
@<TRIPOS>MOLECULE
*****
 40 43 0 0 0
SMALL
GASTEIGER

@<TRIPOS>ATOM
      1 C         142.1514  140.8717  158.5130 C.2     1  UNL1        0.2485
      2 O         140.8249  141.4633  158.1381 O.2     1  UNL1       -0.2726
      3 N         142.6693  141.0187  159.9130 N.am    1  UNL1       -0.2823
      4 H         143.5399  140.6305  160.1591 H       1  UNL1        0.1549
      5 C         142.5067  136.1858  155.4223 C.ar    1  UNL1        0.1054
      6 C         141.4313  136.5407  156.4059 C.ar    1  UNL1        0.0181
      7 C         141.4942  137.8423  157.1488 C.ar    1  UNL1       -0.0011
      8 C         142.6325  138.7889  156.9082 C.ar    1  UNL1        0.0022
      9 C         143.7079  138.4341  155.9246 C.ar    1  UNL1       -0.0030
     10 C         143.6450  137.1325  155.1816 C.ar    1  UNL1        0.0155
     11 C         144.6999  139.5589  155.8964 C.3     1  UNL1        0.1207
     12 N         144.2376  140.6090  156.8626 N.am    1  UNL1       -0.2635
     13 C         144.9311  141.9070  157.1526 C.2     1  UNL1        0.2537
     14 O         144.3466  142.8634  158.1494 O.2     1  UNL1       -0.2722
     15 C         142.9598  140.1331  157.4879 C.3     1  UNL1        0.1751
     16 C         142.3808  133.5827  153.9364 C.3     1  UNL1        0.1816
     17 S         142.4437  134.8842  154.6793 S.O2    1  UNL1        0.0104
     18 O         141.3271  135.4209  153.8337 O.2     1  UNL1       -0.1686
     19 O         143.5603  134.3475  155.5250 O.2     1  UNL1       -0.1686
     20 C         146.2092  142.2487  156.4457 C.3     1  UNL1        0.1935
     21 C         146.6116  142.4354  155.0128 C.3     1  UNL1        0.0711
     22 C         148.0168  142.7319  155.4461 C.3     1  UNL1        0.1457
     23 O         147.6143  142.5452  156.8790 O.3     1  UNL1       -0.3469
     24 C         141.8608  141.7573  160.9381 C.ar    1  UNL1        0.0503
     25 C         141.9269  143.2542  161.0091 C.ar    1  UNL1        0.0144
     26 C         141.1184  143.9928  162.0342 C.ar    1  UNL1       -0.0002
     27 C         140.2439  143.2347  162.9883 C.ar    1  UNL1        0.0182
     28 C         140.1778  141.7378  162.9173 C.ar    1  UNL1       -0.0002
     29 C         140.9863  140.9992  161.8922 C.ar    1  UNL1        0.0144
     30 C         139.4354  143.9733  164.0134 C.3     1  UNL1        0.2827
     31 O         138.5077  144.4525  162.9365 O.3     1  UNL1       -0.3692
     32 H         138.8007  144.1055  162.0793 H       1  UNL1        0.2112
     33 C         138.6269  144.7119  165.0385 C.3     1  UNL1        0.4311
     34 F         137.8185  145.4505  166.0636 F       1  UNL1       -0.1669
     35 F         139.2502  145.2990  165.2649 F       1  UNL1       -0.1669
     36 F         137.4642  143.8007  164.7780 F       1  UNL1       -0.1669
     37 C         140.3631  143.4940  165.0903 C.3     1  UNL1        0.4311
     38 F         141.2907  143.0148  166.1672 F       1  UNL1       -0.1669
     39 F         141.0666  143.9748  164.8487 F       1  UNL1       -0.1669
     40 F         139.5334  142.5250  165.8794 F       1  UNL1       -0.1669
@<TRIPOS>BOND
     1    16    17    1
     2    17    18    2
     3    17    19    2
     4    17     5    1
     5     5     6   ar
     6     6     7   ar
     7     7     8   ar
     8     8     9   ar
     9     9    10   ar
    10     9    11    1
    11    11    12    1
    12    12    13   am
    13    13    14    2
    14    13    20    1
    15    20    21    1
    16    21    22    1
    17    22    23    1
    18    12    15    1
    19    15     1    1
    20     1     2    2
    21     1     3   am
    22     3    24    1
    23    24    25   ar
    24    25    26   ar
    25    26    27   ar
    26    27    30    1
    27    30    31    1
    28    30    33    1
    29    33    34    1
    30    33    35    1
    31    33    36    1
    32    30    37    1
    33    37    38    1
    34    37    39    1
    35    37    40    1
    36    27    28   ar
    37    28    29   ar
    38    10     5   ar
    39    23    20    1
    40    29    24   ar
    41    15     8    1
    42     3     4    1
    43    31    32    1
@<TRIPOS>MOLECULE
*****
 40 43 0 0 0
SMALL
GASTEIGER

@<TRIPOS>ATOM
      1 C         139.1374  142.5795  159.2707 C.2     1  UNL1        0.2485
      2 O         140.5428  142.1324  159.5446 O.2     1  UNL1       -0.2726
      3 N         138.1194  142.5702  160.3723 N.am    1  UNL1       -0.2823
      4 H         137.1970  142.8636  160.1926 H       1  UNL1        0.1549
      5 C         139.8031  146.5921  155.3858 C.ar    1  UNL1        0.1054
      6 C         140.4386  146.5336  156.7433 C.ar    1  UNL1        0.0181
      7 C         140.1480  145.3812  157.6584 C.ar    1  UNL1       -0.0011
      8 C         139.2219  144.2873  157.2162 C.ar    1  UNL1        0.0022
      9 C         138.5864  144.3458  155.8588 C.ar    1  UNL1       -0.0030
     10 C         138.8770  145.4981  154.9436 C.ar    1  UNL1        0.0155
     11 C         137.7219  143.1304  155.6989 C.3     1  UNL1        0.1207
     12 N         137.8231  142.3208  156.9576 N.am    1  UNL1       -0.2635
     13 C         137.1206  141.0238  157.2307 C.2     1  UNL1        0.2537
     14 O         137.3197  140.3248  158.5428 O.2     1  UNL1       -0.2722
     15 C         138.7501  143.0358  157.8953 C.3     1  UNL1        0.1751
     16 C         140.3844  148.8968  153.5554 C.3     1  UNL1        0.1816
     17 S         140.0937  147.7444  154.4706 S.O2    1  UNL1        0.0104
     18 O         139.1753  148.6153  155.2756 O.2     1  UNL1       -0.1686
     19 O         141.0122  146.8735  153.6657 O.2     1  UNL1       -0.1686
     20 C         136.2190  140.4260  156.1916 C.3     1  UNL1        0.1935
     21 C         134.8149  140.6833  155.7307 C.3     1  UNL1        0.0711
     22 C         134.9439  139.5805  154.7221 C.3     1  UNL1        0.1457
     23 O         136.3479  139.3233  155.1830 O.3     1  UNL1       -0.3469
     24 C         138.5067  142.1139  161.7477 C.ar    1  UNL1        0.0503
     25 C         137.9912  142.8432  162.9528 C.ar    1  UNL1        0.0144
     26 C         138.3785  142.3869  164.3282 C.ar    1  UNL1       -0.0002
     27 C         139.2813  141.2013  164.4986 C.ar    1  UNL1        0.0182
     28 C         139.7968  140.4719  163.2935 C.ar    1  UNL1       -0.0002
     29 C         139.4095  140.9282  161.9181 C.ar    1  UNL1        0.0144
     30 C         139.6686  140.7449  165.8740 C.3     1  UNL1        0.2827
     31 O         140.2763  142.0885  166.1486 O.3     1  UNL1       -0.3692
     32 H         140.1711  142.6564  165.3693 H       1  UNL1        0.2112
     33 C         140.0559  140.2886  167.2494 C.3     1  UNL1        0.4311
     34 F         140.4433  139.8323  168.6248 F       1  UNL1       -0.1669
     35 F         139.2365  140.2424  167.5825 F       1  UNL1       -0.1669
     36 F         141.5016  140.3114  166.8498 F       1  UNL1       -0.1669
     37 C         139.0610  139.4013  165.5993 C.3     1  UNL1        0.4311
     38 F         138.4534  138.0577  165.3246 F       1  UNL1       -0.1669
     39 F         139.8210  138.9544  165.5145 F       1  UNL1       -0.1669
     40 F         137.5834  139.6559  165.6404 F       1  UNL1       -0.1669
@<TRIPOS>BOND
     1    16    17    1
     2    17    18    2
     3    17    19    2
     4    17     5    1
     5     5     6   ar
     6     6     7   ar
     7     7     8   ar
     8     8     9   ar
     9     9    10   ar
    10     9    11    1
    11    11    12    1
    12    12    13   am
    13    13    14    2
    14    13    20    1
    15    20    21    1
    16    21    22    1
    17    22    23    1
    18    12    15    1
    19    15     1    1
    20     1     2    2
    21     1     3   am
    22     3    24    1
    23    24    25   ar
    24    25    26   ar
    25    26    27   ar
    26    27    30    1
    27    30    31    1
    28    30    33    1
    29    33    34    1
    30    33    35    1
    31    33    36    1
    32    30    37    1
    33    37    38    1
    34    37    39    1
    35    37    40    1
    36    27    28   ar
    37    28    29   ar
    38    10     5   ar
    39    23    20    1
    40    29    24   ar
    41    15     8    1
    42     3     4    1
    43    31    32    1
@<TRIPOS>MOLECULE
*****
 40 43 0 0 0
SMALL
GASTEIGER

@<TRIPOS>ATOM
      1 C         141.1516  141.5555  161.4992 C.2     1  UNL1        0.2485
      2 O         142.3024  142.0935  162.2968 O.2     1  UNL1       -0.2726
      3 N         140.0130  140.8696  162.1942 N.am    1  UNL1       -0.2823
      4 H         139.2577  140.5165  161.6707 H       1  UNL1        0.1549
      5 C         140.4334  145.1425  157.2267 C.ar    1  UNL1        0.1054
      6 C         140.3470  145.4525  158.6917 C.ar    1  UNL1        0.0181
      7 C         140.5682  144.3665  159.7025 C.ar    1  UNL1       -0.0011
      8 C         140.8758  142.9705  159.2483 C.ar    1  UNL1        0.0022
      9 C         140.9622  142.6604  157.7832 C.ar    1  UNL1       -0.0030
     10 C         140.7410  143.7464  156.7724 C.ar    1  UNL1        0.0155
     11 C         141.2793  141.2017  157.6360 C.3     1  UNL1        0.1207
     12 N         141.3889  140.6102  159.0101 N.am    1  UNL1       -0.2635
     13 C         141.6942  139.1772  159.3315 C.2     1  UNL1        0.2537
     14 O         141.7720  138.7292  160.7609 O.2     1  UNL1       -0.2722
     15 C         141.1395  141.7034  160.0065 C.3     1  UNL1        0.1751
     16 C         139.9910  147.3144  155.2051 C.3     1  UNL1        0.1816
     17 S         140.2122  146.2285  156.2159 S.O2    1  UNL1        0.0104
     18 O         140.9670  145.4310  155.1939 O.2     1  UNL1       -0.1686
     19 O         139.4574  147.0259  157.2378 O.2     1  UNL1       -0.1686
     20 C         141.9217  138.1921  158.2234 C.3     1  UNL1        0.1935
     21 C         141.0557  137.5509  157.1799 C.3     1  UNL1        0.0711
     22 C         142.2435  136.7991  156.6563 C.3     1  UNL1        0.1457
     23 O         143.1094  137.4404  157.6998 O.3     1  UNL1       -0.3469
     24 C         140.0252  140.7217  163.6868 C.ar    1  UNL1        0.0503
     25 C         139.7204  141.9027  164.5600 C.ar    1  UNL1        0.0144
     26 C         139.7326  141.7547  166.0527 C.ar    1  UNL1       -0.0002
     27 C         140.0495  140.4260  166.6722 C.ar    1  UNL1        0.0182
     28 C         140.3542  139.2450  165.7989 C.ar    1  UNL1       -0.0002
     29 C         140.3421  139.3929  164.3063 C.ar    1  UNL1        0.0144
     30 C         140.0616  140.2781  168.1648 C.3     1  UNL1        0.2827
     31 O         138.8471  139.4012  168.0878 O.3     1  UNL1       -0.3692
     32 H         138.5779  139.3023  167.1611 H       1  UNL1        0.2112
     33 C         140.0738  140.1302  169.6574 C.3     1  UNL1        0.4311
     34 F         140.0859  139.9822  171.1500 F       1  UNL1       -0.1669
     35 F         140.7928  139.6155  169.7090 F       1  UNL1       -0.1669
     36 F         138.8485  140.9901  169.7526 F       1  UNL1       -0.1669
     37 C         141.2762  141.1549  168.2418 C.3     1  UNL1        0.4311
     38 F         142.4907  142.0318  168.3188 F       1  UNL1       -0.1669
     39 F         140.8734  141.8679  168.5794 F       1  UNL1       -0.1669
     40 F         142.3816  140.2913  167.7106 F       1  UNL1       -0.1669
@<TRIPOS>BOND
     1    16    17    1
     2    17    18    2
     3    17    19    2
     4    17     5    1
     5     5     6   ar
     6     6     7   ar
     7     7     8   ar
     8     8     9   ar
     9     9    10   ar
    10     9    11    1
    11    11    12    1
    12    12    13   am
    13    13    14    2
    14    13    20    1
    15    20    21    1
    16    21    22    1
    17    22    23    1
    18    12    15    1
    19    15     1    1
    20     1     2    2
    21     1     3   am
    22     3    24    1
    23    24    25   ar
    24    25    26   ar
    25    26    27   ar
    26    27    30    1
    27    30    31    1
    28    30    33    1
    29    33    34    1
    30    33    35    1
    31    33    36    1
    32    30    37    1
    33    37    38    1
    34    37    39    1
    35    37    40    1
    36    27    28   ar
    37    28    29   ar
    38    10     5   ar
    39    23    20    1
    40    29    24   ar
    41    15     8    1
    42     3     4    1
    43    31    32    1
@<TRIPOS>MOLECULE
*****
 40 43 0 0 0
SMALL
GASTEIGER

@<TRIPOS>ATOM
      1 C         143.6886  140.1703  158.6883 C.2     1  UNL1        0.2485
      2 O         142.7806  141.3209  159.0069 O.2     1  UNL1       -0.2726
      3 N         144.0543  139.1850  159.7585 N.am    1  UNL1       -0.2823
      4 H         144.6503  138.4298  159.5494 H       1  UNL1        0.1549
      5 C         147.1734  142.2917  154.8163 C.ar    1  UNL1        0.1054
      6 C         146.9191  142.8272  156.1942 C.ar    1  UNL1        0.0181
      7 C         145.9497  142.1307  157.1025 C.ar    1  UNL1       -0.0011
      8 C         145.2346  140.8986  156.6329 C.ar    1  UNL1        0.0022
      9 C         145.4888  140.3631  155.2551 C.ar    1  UNL1       -0.0030
     10 C         146.4583  141.0597  154.3468 C.ar    1  UNL1        0.0155
     11 C         144.6424  139.1386  155.0701 C.3     1  UNL1        0.1207
     12 N         143.8650  138.9173  156.3337 N.am    1  UNL1       -0.2635
     13 C         142.8924  137.8038  156.5871 C.2     1  UNL1        0.2537
     14 O         142.1859  137.7109  157.9070 O.2     1  UNL1       -0.2722
     15 C         144.2310  140.0051  157.2996 C.3     1  UNL1        0.1751
     16 C         149.1123  143.6849  152.9998 C.3     1  UNL1        0.1816
     17 S         148.1429  142.9883  153.9080 S.O2    1  UNL1        0.0104
     18 O         147.4321  144.2876  154.1459 O.2     1  UNL1       -0.1686
     19 O         148.8536  141.6890  153.6702 O.2     1  UNL1       -0.1686
     20 C         142.6263  136.7833  155.5204 C.3     1  UNL1        0.1935
     21 C         143.3052  135.5269  155.0617 C.3     1  UNL1        0.0711
     22 C         142.2500  135.3400  154.0120 C.3     1  UNL1        0.1457
     23 O         141.5712  136.5964  154.4709 O.3     1  UNL1       -0.3469
     24 C         143.5119  139.3502  161.1472 C.ar    1  UNL1        0.0503
     25 C         144.3584  139.9810  162.2128 C.ar    1  UNL1        0.0144
     26 C         143.8160  140.1463  163.6015 C.ar    1  UNL1       -0.0002
     27 C         142.4272  139.6807  163.9247 C.ar    1  UNL1        0.0182
     28 C         141.5808  139.0499  162.8590 C.ar    1  UNL1       -0.0002
     29 C         142.1231  138.8846  161.4703 C.ar    1  UNL1        0.0144
     30 C         141.8849  139.8460  165.3134 C.3     1  UNL1        0.2827
     31 O         140.9628  140.9236  164.8250 O.3     1  UNL1       -0.3692
     32 H         141.0947  141.0552  163.8731 H       1  UNL1        0.2112
     33 C         141.3425  140.0112  166.7021 C.3     1  UNL1        0.4311
     34 F         140.8001  140.1764  168.0908 F       1  UNL1       -0.1669
     35 F         140.9260  139.2308  166.7489 F       1  UNL1       -0.1669
     36 F         141.9864  141.3629  166.7928 F       1  UNL1       -0.1669
     37 C         142.8069  138.7683  165.8017 C.3     1  UNL1        0.4311
     38 F         143.7289  137.6906  166.2901 F       1  UNL1       -0.1669
     39 F         143.3517  139.2930  166.2627 F       1  UNL1       -0.1669
     40 F         142.2380  137.5105  165.2150 F       1  UNL1       -0.1669
@<TRIPOS>BOND
     1    16    17    1
     2    17    18    2
     3    17    19    2
     4    17     5    1
     5     5     6   ar
     6     6     7   ar
     7     7     8   ar
     8     8     9   ar
     9     9    10   ar
    10     9    11    1
    11    11    12    1
    12    12    13   am
    13    13    14    2
    14    13    20    1
    15    20    21    1
    16    21    22    1
    17    22    23    1
    18    12    15    1
    19    15     1    1
    20     1     2    2
    21     1     3   am
    22     3    24    1
    23    24    25   ar
    24    25    26   ar
    25    26    27   ar
    26    27    30    1
    27    30    31    1
    28    30    33    1
    29    33    34    1
    30    33    35    1
    31    33    36    1
    32    30    37    1
    33    37    38    1
    34    37    39    1
    35    37    40    1
    36    27    28   ar
    37    28    29   ar
    38    10     5   ar
    39    23    20    1
    40    29    24   ar
    41    15     8    1
    42     3     4    1
    43    31    32    1
