@<TRIPOS>MOLECULE
*****
 38 42 0 0 0
SMALL
GASTEIGER

@<TRIPOS>ATOM
      1 C         139.2329  141.2206  160.7039 C.ar    1  UNL1        0.1233
      2 C         139.2928  141.1508  162.2011 C.ar    1  UNL1        0.1181
      3 N         138.3620  142.1905  162.7512 N.ar    1  UNL1       -0.2208
      4 N         137.7268  142.9029  161.5940 N.ar    1  UNL1       -0.0633
      5 N         138.2651  142.3035  160.3287 N.ar    1  UNL1       -0.1287
      6 C         142.1469  139.0092  159.1650 C.ar    1  UNL1        0.1547
      7 C         141.3746  139.8709  160.1194 C.ar    1  UNL1        0.0400
      8 C         140.0053  140.3589  159.7495 C.ar    1  UNL1        0.0241
      9 C         139.4084  139.9852  158.4251 C.ar    1  UNL1        0.0033
     10 C         140.1806  139.1235  157.4706 C.ar    1  UNL1        0.0207
     11 C         141.5500  138.6355  157.8406 C.ar    1  UNL1        0.0994
     12 N         142.3223  137.7738  156.8862 N.ar    1  UNL1       -0.2839
     13 C         143.5106  138.2010  156.0765 C.ar    1  UNL1        0.1826
     14 N         143.9647  137.0249  155.2637 N.ar    1  UNL1       -0.2280
     15 C         143.0571  135.8708  155.5711 C.ar    1  UNL1        0.0786
     16 C         143.1485  134.4954  154.9797 C.3     1  UNL1        0.0538
     17 C         142.0421  136.3337  156.5739 C.ar    1  UNL1        0.0963
     18 C         144.0155  138.6823  160.9401 C.3     1  UNL1        0.2525
     19 O         143.5162  138.5212  159.5349 O.3     1  UNL1       -0.4700
     20 C         138.1105  142.4688  164.2035 C.3     1  UNL1        0.2141
     21 C         139.1270  142.0677  165.2310 C.2     1  UNL1        0.2545
     22 O         140.1996  143.0325  165.6415 O.2     1  UNL1       -0.2724
     23 N         139.0708  140.7016  165.8482 N.am    1  UNL1       -0.2488
     24 C         140.0872  140.3004  166.8757 C.ar    1  UNL1        0.0541
     25 C         139.8108  140.5271  168.3325 C.ar    1  UNL1        0.0149
     26 C         140.8273  140.1259  169.3600 C.ar    1  UNL1        0.0013
     27 C         142.1202  139.4981  168.9308 C.ar    1  UNL1        0.0001
     28 C         142.3966  139.2713  167.4740 C.ar    1  UNL1        0.0012
     29 C         143.6895  138.6435  167.0448 C.ar    1  UNL1        0.0000
     30 C         143.9658  138.4168  165.5880 C.ar    1  UNL1        0.0000
     31 C         142.9494  138.8180  164.5605 C.ar    1  UNL1        0.0000
     32 C         141.6565  139.4458  164.9897 C.ar    1  UNL1        0.0012
     33 C         141.3801  139.6725  166.4464 C.ar    1  UNL1        0.0137
     34 C         137.9981  139.7368  165.4377 C.3     1  UNL1        0.2016
     35 C         138.0383  138.3187  165.9251 C.3     1  UNL1        0.4160
     36 F         138.0786  136.9006  166.4124 F       1  UNL1       -0.1682
     37 F         138.8228  137.9231  164.7093 F       1  UNL1       -0.1682
     38 F         137.2538  138.7143  167.1408 F       1  UNL1       -0.1682
@<TRIPOS>BOND
     1    18    19    1
     2    19     6    1
     3     6     7   ar
     4     7     8   ar
     5     8     1    1
     6     1     2   ar
     7     2     3   ar
     8     3    20    1
     9    20    21    1
    10    21    22    2
    11    21    23   am
    12    23    34    1
    13    34    35    1
    14    35    36    1
    15    35    37    1
    16    35    38    1
    17    23    24    1
    18    24    25   ar
    19    25    26   ar
    20    26    27   ar
    21    27    28   ar
    22    28    29   ar
    23    29    30   ar
    24    30    31   ar
    25    31    32   ar
    26    32    33   ar
    27     3     4   ar
    28     4     5   ar
    29     8     9   ar
    30     9    10   ar
    31    10    11   ar
    32    11    12    1
    33    12    13   ar
    34    13    14   ar
    35    14    15   ar
    36    15    16    1
    37    15    17   ar
    38    11     6   ar
    39    17    12   ar
    40     5     1   ar
    41    33    24   ar
    42    33    28   ar
@<TRIPOS>MOLECULE
*****
 38 42 0 0 0
SMALL
GASTEIGER

@<TRIPOS>ATOM
      1 C         142.8042  141.9086  160.5974 C.ar    1  UNL1        0.1233
      2 C         142.8159  141.9063  162.0974 C.ar    1  UNL1        0.1181
      3 N         143.0427  143.3146  162.5614 N.ar    1  UNL1       -0.2208
      4 N         143.1713  144.1873  161.3481 N.ar    1  UNL1       -0.0633
      5 N         143.0239  143.3184  160.1344 N.ar    1  UNL1       -0.1287
      6 C         143.3062  139.2996  157.6494 C.ar    1  UNL1        0.1547
      7 C         143.5030  140.4968  158.5314 C.ar    1  UNL1        0.0400
      8 C         142.6074  140.7114  159.7154 C.ar    1  UNL1        0.0241
      9 C         141.5150  139.7288  160.0173 C.ar    1  UNL1        0.0033
     10 C         141.3181  138.5316  159.1353 C.ar    1  UNL1        0.0207
     11 C         142.2138  138.3170  157.9513 C.ar    1  UNL1        0.0994
     12 N         142.0170  137.1199  157.0693 N.ar    1  UNL1       -0.2839
     13 C         140.9030  136.9242  156.0840 C.ar    1  UNL1        0.1826
     14 N         141.0971  135.5916  155.4234 N.ar    1  UNL1       -0.2280
     15 C         142.3311  134.9636  156.0004 C.ar    1  UNL1        0.0786
     16 C         142.8973  133.6260  155.6259 C.3     1  UNL1        0.0538
     17 C         142.8997  135.9082  157.0176 C.ar    1  UNL1        0.0963
     18 C         143.7293  139.4552  155.0907 C.3     1  UNL1        0.2525
     19 O         144.2018  139.0850  156.4654 O.3     1  UNL1       -0.4700
     20 C         143.1264  143.7701  163.9880 C.3     1  UNL1        0.2141
     21 C         142.5512  142.9200  165.0818 C.2     1  UNL1        0.2545
     22 O         143.3953  141.8663  165.7353 O.2     1  UNL1       -0.2724
     23 N         141.1317  143.1235  165.5220 N.am    1  UNL1       -0.2488
     24 C         140.5564  142.2733  166.6158 C.ar    1  UNL1        0.0541
     25 C         140.6741  142.7103  168.0459 C.ar    1  UNL1        0.0149
     26 C         140.0989  141.8601  169.1396 C.ar    1  UNL1        0.0013
     27 C         139.4060  140.5730  168.8033 C.ar    1  UNL1        0.0001
     28 C         139.2882  140.1360  167.3731 C.ar    1  UNL1        0.0012
     29 C         138.5953  138.8489  167.0368 C.ar    1  UNL1        0.0000
     30 C         138.4776  138.4120  165.6067 C.ar    1  UNL1        0.0000
     31 C         139.0528  139.2622  164.5130 C.ar    1  UNL1        0.0000
     32 C         139.7458  140.5493  164.8493 C.ar    1  UNL1        0.0012
     33 C         139.8635  140.9862  166.2794 C.ar    1  UNL1        0.0137
     34 C         140.2875  144.1772  164.8685 C.3     1  UNL1        0.2016
     35 C         138.7926  144.1118  164.9726 C.3     1  UNL1        0.4160
     36 F         137.2976  144.0463  165.0767 F       1  UNL1       -0.1682
     37 F         138.7459  143.2395  163.7532 F       1  UNL1       -0.1682
     38 F         138.8393  144.9841  166.1920 F       1  UNL1       -0.1682
@<TRIPOS>BOND
     1    18    19    1
     2    19     6    1
     3     6     7   ar
     4     7     8   ar
     5     8     1    1
     6     1     2   ar
     7     2     3   ar
     8     3    20    1
     9    20    21    1
    10    21    22    2
    11    21    23   am
    12    23    34    1
    13    34    35    1
    14    35    36    1
    15    35    37    1
    16    35    38    1
    17    23    24    1
    18    24    25   ar
    19    25    26   ar
    20    26    27   ar
    21    27    28   ar
    22    28    29   ar
    23    29    30   ar
    24    30    31   ar
    25    31    32   ar
    26    32    33   ar
    27     3     4   ar
    28     4     5   ar
    29     8     9   ar
    30     9    10   ar
    31    10    11   ar
    32    11    12    1
    33    12    13   ar
    34    13    14   ar
    35    14    15   ar
    36    15    16    1
    37    15    17   ar
    38    11     6   ar
    39    17    12   ar
    40     5     1   ar
    41    33    24   ar
    42    33    28   ar
@<TRIPOS>MOLECULE
*****
 38 42 0 0 0
SMALL
GASTEIGER

@<TRIPOS>ATOM
      1 C         141.7354  142.9467  160.4296 C.ar    1  UNL1        0.1233
      2 C         141.5600  142.9965  161.9184 C.ar    1  UNL1        0.1181
      3 N         142.7987  143.6001  162.5112 N.ar    1  UNL1       -0.2208
      4 N         143.7396  143.9234  161.3886 N.ar    1  UNL1       -0.0633
      5 N         143.0825  143.5196  160.1021 N.ar    1  UNL1       -0.1287
      6 C         138.7461  140.8485  158.8765 C.ar    1  UNL1        0.1547
      7 C         139.7428  141.3782  159.8645 C.ar    1  UNL1        0.0400
      8 C         140.7387  142.4171  159.4416 C.ar    1  UNL1        0.0241
      9 C         140.7379  142.9263  158.0307 C.ar    1  UNL1        0.0033
     10 C         139.7412  142.3967  157.0426 C.ar    1  UNL1        0.0207
     11 C         138.7453  141.3577  157.4656 C.ar    1  UNL1        0.0994
     12 N         137.7486  140.8281  156.4777 N.ar    1  UNL1       -0.2839
     13 C         138.0169  139.7980  155.4208 C.ar    1  UNL1        0.1826
     14 N         136.7427  139.5688  154.6630 N.ar    1  UNL1       -0.2280
     15 C         135.6871  140.4571  155.2517 C.ar    1  UNL1        0.0786
     16 C         134.2603  140.5508  154.7984 C.3     1  UNL1        0.0538
     17 C         136.3088  141.2354  156.3733 C.ar    1  UNL1        0.0963
     18 C         137.3701  139.6795  160.7447 C.3     1  UNL1        0.2525
     19 O         137.7502  139.8096  159.2995 O.3     1  UNL1       -0.4700
     20 C         143.0519  143.8386  163.9702 C.3     1  UNL1        0.2141
     21 C         142.4804  142.9024  164.9935 C.2     1  UNL1        0.2545
     22 O         143.2997  141.7516  165.4976 O.2     1  UNL1       -0.2724
     23 N         141.0895  143.1172  165.5125 N.am    1  UNL1       -0.2488
     24 C         140.5180  142.1811  166.5358 C.ar    1  UNL1        0.0541
     25 C         140.6081  142.5187  167.9945 C.ar    1  UNL1        0.0149
     26 C         140.0366  141.5825  169.0177 C.ar    1  UNL1        0.0013
     27 C         139.3749  140.3088  168.5822 C.ar    1  UNL1        0.0001
     28 C         139.2848  139.9711  167.1235 C.ar    1  UNL1        0.0012
     29 C         138.6231  138.6973  166.6880 C.ar    1  UNL1        0.0000
     30 C         138.5330  138.3597  165.2293 C.ar    1  UNL1        0.0000
     31 C         139.1045  139.2959  164.2061 C.ar    1  UNL1        0.0000
     32 C         139.7661  140.5696  164.6415 C.ar    1  UNL1        0.0012
     33 C         139.8563  140.9072  166.1002 C.ar    1  UNL1        0.0137
     34 C         140.2702  144.2681  165.0084 C.3     1  UNL1        0.2016
     35 C         138.7727  144.1824  165.0149 C.3     1  UNL1        0.4160
     36 F         137.2751  144.0967  165.0214 F       1  UNL1       -0.1682
     37 F         138.8131  143.3798  163.7483 F       1  UNL1       -0.1682
     38 F         138.7322  144.9850  166.2815 F       1  UNL1       -0.1682
@<TRIPOS>BOND
     1    18    19    1
     2    19     6    1
     3     6     7   ar
     4     7     8   ar
     5     8     1    1
     6     1     2   ar
     7     2     3   ar
     8     3    20    1
     9    20    21    1
    10    21    22    2
    11    21    23   am
    12    23    34    1
    13    34    35    1
    14    35    36    1
    15    35    37    1
    16    35    38    1
    17    23    24    1
    18    24    25   ar
    19    25    26   ar
    20    26    27   ar
    21    27    28   ar
    22    28    29   ar
    23    29    30   ar
    24    30    31   ar
    25    31    32   ar
    26    32    33   ar
    27     3     4   ar
    28     4     5   ar
    29     8     9   ar
    30     9    10   ar
    31    10    11   ar
    32    11    12    1
    33    12    13   ar
    34    13    14   ar
    35    14    15   ar
    36    15    16    1
    37    15    17   ar
    38    11     6   ar
    39    17    12   ar
    40     5     1   ar
    41    33    24   ar
    42    33    28   ar
@<TRIPOS>MOLECULE
*****
 38 42 0 0 0
SMALL
GASTEIGER

@<TRIPOS>ATOM
      1 C         139.9110  142.5233  160.9128 C.ar    1  UNL1        0.1233
      2 C         139.9738  142.4042  162.4067 C.ar    1  UNL1        0.1181
      3 N         138.6096  142.7043  162.9534 N.ar    1  UNL1       -0.2208
      4 N         137.7036  143.0088  161.7972 N.ar    1  UNL1       -0.0633
      5 N         138.5079  142.8969  160.5361 N.ar    1  UNL1       -0.1287
      6 C         142.4045  143.0371  157.8683 C.ar    1  UNL1        0.1547
      7 C         141.2644  143.2536  158.8188 C.ar    1  UNL1        0.0400
      8 C         141.0511  142.3067  159.9623 C.ar    1  UNL1        0.0241
      9 C         141.9778  141.1432  160.1554 C.ar    1  UNL1        0.0033
     10 C         143.1180  140.9265  159.2051 C.ar    1  UNL1        0.0207
     11 C         143.3313  141.8735  158.0614 C.ar    1  UNL1        0.0994
     12 N         144.4713  141.6570  157.1111 N.ar    1  UNL1       -0.2839
     13 C         144.4425  140.7998  155.8804 C.ar    1  UNL1        0.1826
     14 N         145.7938  140.8726  155.2331 N.ar    1  UNL1       -0.2280
     15 C         146.6576  141.7747  156.0637 C.ar    1  UNL1        0.0786
     16 C         148.0877  142.1298  155.7830 C.3     1  UNL1        0.0538
     17 C         145.8402  142.2595  157.2244 C.ar    1  UNL1        0.0963
     18 C         142.1904  145.4166  156.8476 C.3     1  UNL1        0.2525
     19 O         142.6178  143.9840  156.7248 O.3     1  UNL1       -0.4700
     20 C         138.2197  142.7005  164.4018 C.3     1  UNL1        0.2141
     21 C         139.1961  142.2328  165.4400 C.2     1  UNL1        0.2545
     22 O         140.2283  143.1784  165.9788 O.2     1  UNL1       -0.2724
     23 N         139.1402  140.8194  165.9395 N.am    1  UNL1       -0.2488
     24 C         140.1166  140.3517  166.9777 C.ar    1  UNL1        0.0541
     25 C         139.8055  140.5303  168.4342 C.ar    1  UNL1        0.0149
     26 C         140.7819  140.0626  169.4725 C.ar    1  UNL1        0.0013
     27 C         142.0693  139.4164  169.0543 C.ar    1  UNL1        0.0001
     28 C         142.3804  139.2378  167.5977 C.ar    1  UNL1        0.0012
     29 C         143.6678  138.5916  167.1795 C.ar    1  UNL1        0.0000
     30 C         143.9788  138.4130  165.7231 C.ar    1  UNL1        0.0000
     31 C         143.0025  138.8807  164.6848 C.ar    1  UNL1        0.0000
     32 C         141.7151  139.5269  165.1030 C.ar    1  UNL1        0.0012
     33 C         141.4040  139.7055  166.5595 C.ar    1  UNL1        0.0137
     34 C         138.1080  139.8739  165.4007 C.3     1  UNL1        0.2016
     35 C         138.0772  138.4498  165.8708 C.3     1  UNL1        0.4160
     36 F         138.0465  137.0257  166.3410 F       1  UNL1       -0.1682
     37 F         138.8798  138.0369  164.6727 F       1  UNL1       -0.1682
     38 F         137.2747  138.8626  167.0689 F       1  UNL1       -0.1682
@<TRIPOS>BOND
     1    18    19    1
     2    19     6    1
     3     6     7   ar
     4     7     8   ar
     5     8     1    1
     6     1     2   ar
     7     2     3   ar
     8     3    20    1
     9    20    21    1
    10    21    22    2
    11    21    23   am
    12    23    34    1
    13    34    35    1
    14    35    36    1
    15    35    37    1
    16    35    38    1
    17    23    24    1
    18    24    25   ar
    19    25    26   ar
    20    26    27   ar
    21    27    28   ar
    22    28    29   ar
    23    29    30   ar
    24    30    31   ar
    25    31    32   ar
    26    32    33   ar
    27     3     4   ar
    28     4     5   ar
    29     8     9   ar
    30     9    10   ar
    31    10    11   ar
    32    11    12    1
    33    12    13   ar
    34    13    14   ar
    35    14    15   ar
    36    15    16    1
    37    15    17   ar
    38    11     6   ar
    39    17    12   ar
    40     5     1   ar
    41    33    24   ar
    42    33    28   ar
@<TRIPOS>MOLECULE
*****
 38 42 0 0 0
SMALL
GASTEIGER

@<TRIPOS>ATOM
      1 C         142.7012  141.7986  160.6301 C.ar    1  UNL1        0.1233
      2 C         142.3312  141.8314  162.0834 C.ar    1  UNL1        0.1181
      3 N         142.6733  143.1904  162.6182 N.ar    1  UNL1       -0.2208
      4 N         143.2547  143.9975  161.4954 N.ar    1  UNL1       -0.0633
      5 N         143.2720  143.1373  160.2667 N.ar    1  UNL1       -0.1287
      6 C         143.2935  139.2859  157.6158 C.ar    1  UNL1        0.1547
      7 C         143.4643  140.4527  158.5429 C.ar    1  UNL1        0.0400
      8 C         142.5304  140.6318  159.7030 C.ar    1  UNL1        0.0241
      9 C         141.4257  139.6442  159.9359 C.ar    1  UNL1        0.0033
     10 C         141.2548  138.4775  159.0088 C.ar    1  UNL1        0.0207
     11 C         142.1888  138.2983  157.8487 C.ar    1  UNL1        0.0994
     12 N         142.0180  137.1317  156.9216 N.ar    1  UNL1       -0.2839
     13 C         140.9127  136.9533  155.9232 C.ar    1  UNL1        0.1826
     14 N         141.1341  135.6498  155.2146 N.ar    1  UNL1       -0.2280
     15 C         142.3761  135.0227  155.7750 C.ar    1  UNL1        0.0786
     16 C         142.9679  133.7101  155.3544 C.3     1  UNL1        0.0538
     17 C         142.9224  135.9385  156.8300 C.ar    1  UNL1        0.0963
     18 C         145.0693  140.2561  155.9863 C.3     1  UNL1        0.2525
     19 O         144.2274  139.1068  156.4557 O.3     1  UNL1       -0.4700
     20 C         142.4698  143.6599  164.0281 C.3     1  UNL1        0.2141
     21 C         141.9684  142.7058  165.0713 C.2     1  UNL1        0.2545
     22 O         142.9409  141.9763  165.9499 O.2     1  UNL1       -0.2724
     23 N         140.4944  142.4812  165.2359 N.am    1  UNL1       -0.2488
     24 C         139.9930  141.5271  166.2791 C.ar    1  UNL1        0.0541
     25 C         139.4732  140.1793  165.8750 C.ar    1  UNL1        0.0149
     26 C         138.9719  139.2252  166.9182 C.ar    1  UNL1        0.0013
     27 C         138.9903  139.6188  168.3655 C.ar    1  UNL1        0.0001
     28 C         139.5101  140.9667  168.7696 C.ar    1  UNL1        0.0012
     29 C         139.5285  141.3603  170.2169 C.ar    1  UNL1        0.0000
     30 C         140.0483  142.7080  170.6210 C.ar    1  UNL1        0.0000
     31 C         140.5496  143.6622  169.5778 C.ar    1  UNL1        0.0000
     32 C         140.5312  143.2685  168.1305 C.ar    1  UNL1        0.0012
     33 C         140.0115  141.9208  167.7264 C.ar    1  UNL1        0.0137
     34 C         139.5219  143.2107  164.3573 C.3     1  UNL1        0.2016
     35 C         138.4277  144.0330  164.9708 C.3     1  UNL1        0.4160
     36 F         137.3334  144.8554  165.5844 F       1  UNL1       -0.1682
     37 F         137.4480  142.9292  164.7031 F       1  UNL1       -0.1682
     38 F         139.4074  145.1369  165.2386 F       1  UNL1       -0.1682
@<TRIPOS>BOND
     1    18    19    1
     2    19     6    1
     3     6     7   ar
     4     7     8   ar
     5     8     1    1
     6     1     2   ar
     7     2     3   ar
     8     3    20    1
     9    20    21    1
    10    21    22    2
    11    21    23   am
    12    23    34    1
    13    34    35    1
    14    35    36    1
    15    35    37    1
    16    35    38    1
    17    23    24    1
    18    24    25   ar
    19    25    26   ar
    20    26    27   ar
    21    27    28   ar
    22    28    29   ar
    23    29    30   ar
    24    30    31   ar
    25    31    32   ar
    26    32    33   ar
    27     3     4   ar
    28     4     5   ar
    29     8     9   ar
    30     9    10   ar
    31    10    11   ar
    32    11    12    1
    33    12    13   ar
    34    13    14   ar
    35    14    15   ar
    36    15    16    1
    37    15    17   ar
    38    11     6   ar
    39    17    12   ar
    40     5     1   ar
    41    33    24   ar
    42    33    28   ar
@<TRIPOS>MOLECULE
*****
 38 42 0 0 0
SMALL
GASTEIGER

@<TRIPOS>ATOM
      1 C         140.1836  142.3368  159.7721 C.ar    1  UNL1        0.1233
      2 C         139.6976  141.3106  160.7523 C.ar    1  UNL1        0.1181
      3 N         138.4766  141.8584  161.4298 N.ar    1  UNL1       -0.2208
      4 N         138.2079  143.2231  160.8683 N.ar    1  UNL1       -0.0633
      5 N         139.2629  143.5189  159.8438 N.ar    1  UNL1       -0.1287
      6 C         143.2108  140.7287  157.7720 C.ar    1  UNL1        0.1547
      7 C         142.0142  140.8612  158.6668 C.ar    1  UNL1        0.0400
      8 C         141.3802  142.2042  158.8773 C.ar    1  UNL1        0.0241
      9 C         141.9428  143.4147  158.1931 C.ar    1  UNL1        0.0033
     10 C         143.1394  143.2823  157.2983 C.ar    1  UNL1        0.0207
     11 C         143.7734  141.9392  157.0878 C.ar    1  UNL1        0.0994
     12 N         144.9699  141.8066  156.1930 N.ar    1  UNL1       -0.2839
     13 C         144.9482  141.4240  154.7428 C.ar    1  UNL1        0.1826
     14 N         146.3632  141.4143  154.2447 N.ar    1  UNL1       -0.2280
     15 C         147.2593  141.7909  155.3872 C.ar    1  UNL1        0.0786
     16 C         148.7540  141.9051  155.3349 C.3     1  UNL1        0.0538
     17 C         146.3981  142.0334  156.5913 C.ar    1  UNL1        0.0963
     18 C         143.2565  138.4257  156.5704 C.3     1  UNL1        0.2525
     19 O         143.8448  139.3857  157.5615 O.3     1  UNL1       -0.4700
     20 C         137.6665  141.1634  162.4836 C.3     1  UNL1        0.2141
     21 C         138.0819  141.2427  163.9228 C.2     1  UNL1        0.2545
     22 O         137.7510  142.4610  164.7329 O.2     1  UNL1       -0.2724
     23 N         138.8283  140.1037  164.5518 N.am    1  UNL1       -0.2488
     24 C         139.2438  140.1830  165.9909 C.ar    1  UNL1        0.0541
     25 C         138.3891  139.5587  167.0538 C.ar    1  UNL1        0.0149
     26 C         138.8045  139.6381  168.4929 C.ar    1  UNL1        0.0013
     27 C         140.0747  140.3416  168.8692 C.ar    1  UNL1        0.0001
     28 C         140.9295  140.9659  167.8063 C.ar    1  UNL1        0.0012
     29 C         142.1996  141.6695  168.1826 C.ar    1  UNL1        0.0000
     30 C         143.0543  142.2938  167.1197 C.ar    1  UNL1        0.0000
     31 C         142.6389  142.2144  165.6806 C.ar    1  UNL1        0.0000
     32 C         141.3687  141.5109  165.3043 C.ar    1  UNL1        0.0012
     33 C         140.5140  140.8866  166.3672 C.ar    1  UNL1        0.0137
     34 C         139.1592  138.8854  163.7417 C.3     1  UNL1        0.2016
     35 C         140.1262  137.8701  164.2748 C.3     1  UNL1        0.4160
     36 F         141.0931  136.8548  164.8079 F       1  UNL1       -0.1682
     37 F         141.2622  138.6232  163.6485 F       1  UNL1       -0.1682
     38 F         138.9901  137.1171  164.9011 F       1  UNL1       -0.1682
@<TRIPOS>BOND
     1    18    19    1
     2    19     6    1
     3     6     7   ar
     4     7     8   ar
     5     8     1    1
     6     1     2   ar
     7     2     3   ar
     8     3    20    1
     9    20    21    1
    10    21    22    2
    11    21    23   am
    12    23    34    1
    13    34    35    1
    14    35    36    1
    15    35    37    1
    16    35    38    1
    17    23    24    1
    18    24    25   ar
    19    25    26   ar
    20    26    27   ar
    21    27    28   ar
    22    28    29   ar
    23    29    30   ar
    24    30    31   ar
    25    31    32   ar
    26    32    33   ar
    27     3     4   ar
    28     4     5   ar
    29     8     9   ar
    30     9    10   ar
    31    10    11   ar
    32    11    12    1
    33    12    13   ar
    34    13    14   ar
    35    14    15   ar
    36    15    16    1
    37    15    17   ar
    38    11     6   ar
    39    17    12   ar
    40     5     1   ar
    41    33    24   ar
    42    33    28   ar
@<TRIPOS>MOLECULE
*****
 38 42 0 0 0
SMALL
GASTEIGER

@<TRIPOS>ATOM
      1 C         139.7755  143.5613  159.6395 C.ar    1  UNL1        0.1233
      2 C         140.4078  142.8642  160.8075 C.ar    1  UNL1        0.1181
      3 N         141.0215  143.9077  161.6932 N.ar    1  UNL1       -0.2208
      4 N         140.7686  145.2496  161.0726 N.ar    1  UNL1       -0.0633
      5 N         139.9985  145.0356  159.8033 N.ar    1  UNL1       -0.1287
      6 C         138.2943  142.8854  156.0201 C.ar    1  UNL1        0.1547
      7 C         139.0218  143.5465  157.1531 C.ar    1  UNL1        0.0400
      8 C         139.0479  142.9002  158.5065 C.ar    1  UNL1        0.0241
      9 C         138.3465  141.5927  158.7268 C.ar    1  UNL1        0.0033
     10 C         137.6189  140.9316  157.5939 C.ar    1  UNL1        0.0207
     11 C         137.5928  141.5779  156.2405 C.ar    1  UNL1        0.0994
     12 N         136.8653  140.9169  155.1076 N.ar    1  UNL1       -0.2839
     13 C         135.4037  141.0537  154.7990 C.ar    1  UNL1        0.1826
     14 N         135.1066  140.2243  153.5850 N.ar    1  UNL1       -0.2280
     15 C         136.3846  139.5748  153.1433 C.ar    1  UNL1        0.0786
     16 C         136.5472  138.6582  151.9671 C.3     1  UNL1        0.0538
     17 C         137.4715  140.0028  154.0844 C.ar    1  UNL1        0.0963
     18 C         137.0989  144.3801  154.2633 C.3     1  UNL1        0.2525
     19 O         138.2682  143.5317  154.6668 O.3     1  UNL1       -0.4700
     20 C         141.7588  143.6537  162.9745 C.3     1  UNL1        0.2141
     21 C         141.3246  142.5410  163.8819 C.2     1  UNL1        0.2545
     22 O         142.2746  141.4281  164.2116 O.2     1  UNL1       -0.2724
     23 N         139.9402  142.5411  164.4594 N.am    1  UNL1       -0.2488
     24 C         139.5059  141.4284  165.3667 C.ar    1  UNL1        0.0541
     25 C         138.6711  140.3044  164.8286 C.ar    1  UNL1        0.0149
     26 C         138.2369  139.1916  165.7359 C.ar    1  UNL1        0.0013
     27 C         138.6374  139.2029  167.1813 C.ar    1  UNL1        0.0001
     28 C         139.4723  140.3269  167.7196 C.ar    1  UNL1        0.0012
     29 C         139.8729  140.3382  169.1650 C.ar    1  UNL1        0.0000
     30 C         140.7077  141.4622  169.7031 C.ar    1  UNL1        0.0000
     31 C         141.1420  142.5749  168.7958 C.ar    1  UNL1        0.0000
     32 C         140.7414  142.5637  167.3504 C.ar    1  UNL1        0.0012
     33 C         139.9065  141.4397  166.8122 C.ar    1  UNL1        0.0137
     34 C         138.9901  143.6540  164.1297 C.3     1  UNL1        0.2016
     35 C         138.5737  144.6250  165.1945 C.3     1  UNL1        0.4160
     36 F         138.1573  145.5959  166.2594 F       1  UNL1       -0.1682
     37 F         139.9781  145.1468  165.2679 F       1  UNL1       -0.1682
     38 F         137.1693  144.1032  165.1212 F       1  UNL1       -0.1682
@<TRIPOS>BOND
     1    18    19    1
     2    19     6    1
     3     6     7   ar
     4     7     8   ar
     5     8     1    1
     6     1     2   ar
     7     2     3   ar
     8     3    20    1
     9    20    21    1
    10    21    22    2
    11    21    23   am
    12    23    34    1
    13    34    35    1
    14    35    36    1
    15    35    37    1
    16    35    38    1
    17    23    24    1
    18    24    25   ar
    19    25    26   ar
    20    26    27   ar
    21    27    28   ar
    22    28    29   ar
    23    29    30   ar
    24    30    31   ar
    25    31    32   ar
    26    32    33   ar
    27     3     4   ar
    28     4     5   ar
    29     8     9   ar
    30     9    10   ar
    31    10    11   ar
    32    11    12    1
    33    12    13   ar
    34    13    14   ar
    35    14    15   ar
    36    15    16    1
    37    15    17   ar
    38    11     6   ar
    39    17    12   ar
    40     5     1   ar
    41    33    24   ar
    42    33    28   ar
@<TRIPOS>MOLECULE
*****
 38 42 0 0 0
SMALL
GASTEIGER

@<TRIPOS>ATOM
      1 C         140.9555  143.6885  159.3368 C.ar    1  UNL1        0.1233
      2 C         141.6562  144.0666  160.6080 C.ar    1  UNL1        0.1181
      3 N         141.4807  142.9429  161.5859 N.ar    1  UNL1       -0.2208
      4 N         140.6715  141.8702  160.9191 N.ar    1  UNL1       -0.0633
      5 N         140.3468  142.3310  159.5290 N.ar    1  UNL1       -0.1287
      6 C         139.5138  145.4338  156.0771 C.ar    1  UNL1        0.1547
      7 C         139.5922  144.6007  157.3220 C.ar    1  UNL1        0.0400
      8 C         140.8771  144.5216  158.0918 C.ar    1  UNL1        0.0241
      9 C         142.0837  145.2756  157.6167 C.ar    1  UNL1        0.0033
     10 C         142.0054  146.1087  156.3718 C.ar    1  UNL1        0.0207
     11 C         140.7203  146.1878  155.6020 C.ar    1  UNL1        0.0994
     12 N         140.6420  147.0208  154.3571 N.ar    1  UNL1       -0.2839
     13 C         141.1461  146.6278  153.0000 C.ar    1  UNL1        0.1826
     14 N         140.8614  147.7572  152.0548 N.ar    1  UNL1       -0.2280
     15 C         140.1814  148.8482  152.8277 C.ar    1  UNL1        0.0786
     16 C         139.7183  150.1635  152.2748 C.3     1  UNL1        0.0538
     17 C         140.0458  148.3931  154.2506 C.ar    1  UNL1        0.0963
     18 C         137.3238  144.3190  155.2338 C.3     1  UNL1        0.2525
     19 O         138.2289  145.5129  155.3072 O.3     1  UNL1       -0.4700
     20 C         142.0198  142.8994  162.9850 C.3     1  UNL1        0.2141
     21 C         141.4701  141.9108  163.9702 C.2     1  UNL1        0.2545
     22 O         142.3215  140.7694  164.4417 O.2     1  UNL1       -0.2724
     23 N         140.0690  142.0636  164.4837 N.am    1  UNL1       -0.2488
     24 C         139.5194  141.0749  165.4689 C.ar    1  UNL1        0.0541
     25 C         138.6734  139.9319  164.9918 C.ar    1  UNL1        0.0149
     26 C         138.1237  138.9433  165.9769 C.ar    1  UNL1        0.0013
     27 C         138.4201  139.0977  167.4392 C.ar    1  UNL1        0.0001
     28 C         139.2661  140.2408  167.9164 C.ar    1  UNL1        0.0012
     29 C         139.5625  140.3952  169.3786 C.ar    1  UNL1        0.0000
     30 C         140.4085  141.5382  169.8558 C.ar    1  UNL1        0.0000
     31 C         140.9581  142.5269  168.8706 C.ar    1  UNL1        0.0000
     32 C         140.6618  142.3724  167.4083 C.ar    1  UNL1        0.0012
     33 C         139.8158  141.2294  166.9312 C.ar    1  UNL1        0.0137
     34 C         139.2177  143.2049  164.0122 C.3     1  UNL1        0.2016
     35 C         138.7911  144.2711  164.9772 C.3     1  UNL1        0.4160
     36 F         138.3646  145.3373  165.9422 F       1  UNL1       -0.1682
     37 F         140.2020  144.7762  165.0428 F       1  UNL1       -0.1682
     38 F         137.3802  143.7661  164.9116 F       1  UNL1       -0.1682
@<TRIPOS>BOND
     1    18    19    1
     2    19     6    1
     3     6     7   ar
     4     7     8   ar
     5     8     1    1
     6     1     2   ar
     7     2     3   ar
     8     3    20    1
     9    20    21    1
    10    21    22    2
    11    21    23   am
    12    23    34    1
    13    34    35    1
    14    35    36    1
    15    35    37    1
    16    35    38    1
    17    23    24    1
    18    24    25   ar
    19    25    26   ar
    20    26    27   ar
    21    27    28   ar
    22    28    29   ar
    23    29    30   ar
    24    30    31   ar
    25    31    32   ar
    26    32    33   ar
    27     3     4   ar
    28     4     5   ar
    29     8     9   ar
    30     9    10   ar
    31    10    11   ar
    32    11    12    1
    33    12    13   ar
    34    13    14   ar
    35    14    15   ar
    36    15    16    1
    37    15    17   ar
    38    11     6   ar
    39    17    12   ar
    40     5     1   ar
    41    33    24   ar
    42    33    28   ar
@<TRIPOS>MOLECULE
*****
 38 42 0 0 0
SMALL
GASTEIGER

@<TRIPOS>ATOM
      1 C         138.3050  141.5466  159.7993 C.ar    1  UNL1        0.1233
      2 C         138.3035  141.7889  161.2796 C.ar    1  UNL1        0.1181
      3 N         137.8513  140.5283  161.9552 N.ar    1  UNL1       -0.2208
      4 N         137.5733  139.5069  160.8924 N.ar    1  UNL1       -0.0633
      5 N         137.8537  140.1362  159.5600 N.ar    1  UNL1       -0.1287
      6 C         138.3560  143.5466  156.3718 C.ar    1  UNL1        0.1547
      7 C         137.9709  142.5529  157.4275 C.ar    1  UNL1        0.0400
      8 C         138.6902  142.5402  158.7437 C.ar    1  UNL1        0.0241
      9 C         139.7947  143.5212  159.0042 C.ar    1  UNL1        0.0033
     10 C         140.1799  144.5148  157.9486 C.ar    1  UNL1        0.0207
     11 C         139.4605  144.5275  156.6323 C.ar    1  UNL1        0.0994
     12 N         139.8457  145.5210  155.5767 N.ar    1  UNL1       -0.2839
     13 C         140.7203  145.2505  154.3885 C.ar    1  UNL1        0.1826
     14 N         140.8391  146.5219  153.6013 N.ar    1  UNL1       -0.2280
     15 C         140.0378  147.5781  154.3030 C.ar    1  UNL1        0.0786
     16 C         139.8785  149.0027  153.8615 C.3     1  UNL1        0.0538
     17 C         139.4239  146.9595  155.5240 C.ar    1  UNL1        0.0963
     18 C         136.3620  142.7861  154.8901 C.3     1  UNL1        0.2525
     19 O         137.6367  143.5592  155.0556 O.3     1  UNL1       -0.4700
     20 C         137.7031  140.3249  163.4339 C.3     1  UNL1        0.2141
     21 C         138.8272  139.7241  164.2247 C.2     1  UNL1        0.2545
     22 O         138.8764  138.2422  164.4516 O.2     1  UNL1       -0.2724
     23 N         139.9022  140.6053  164.7886 N.am    1  UNL1       -0.2488
     24 C         141.0264  140.0045  165.5794 C.ar    1  UNL1        0.0541
     25 C         142.2174  139.4293  164.8720 C.ar    1  UNL1        0.0149
     26 C         143.3415  138.8285  165.6628 C.ar    1  UNL1        0.0013
     27 C         143.2746  138.8029  167.1610 C.ar    1  UNL1        0.0001
     28 C         142.0835  139.3781  167.8686 C.ar    1  UNL1        0.0012
     29 C         142.0166  139.3525  169.3668 C.ar    1  UNL1        0.0000
     30 C         140.8256  139.9277  170.0743 C.ar    1  UNL1        0.0000
     31 C         139.7015  140.5285  169.2835 C.ar    1  UNL1        0.0000
     32 C         139.7684  140.5541  167.7852 C.ar    1  UNL1        0.0012
     33 C         140.9594  139.9789  167.0778 C.ar    1  UNL1        0.0137
     34 C         139.8531  142.0872  164.5618 C.3     1  UNL1        0.2016
     35 C         141.0933  142.9135  164.7318 C.3     1  UNL1        0.4160
     36 F         142.3336  143.7399  164.9018 F       1  UNL1       -0.1682
     37 F         141.5588  142.4954  163.3685 F       1  UNL1       -0.1682
     38 F         140.6279  143.3316  166.0951 F       1  UNL1       -0.1682
@<TRIPOS>BOND
     1    18    19    1
     2    19     6    1
     3     6     7   ar
     4     7     8   ar
     5     8     1    1
     6     1     2   ar
     7     2     3   ar
     8     3    20    1
     9    20    21    1
    10    21    22    2
    11    21    23   am
    12    23    34    1
    13    34    35    1
    14    35    36    1
    15    35    37    1
    16    35    38    1
    17    23    24    1
    18    24    25   ar
    19    25    26   ar
    20    26    27   ar
    21    27    28   ar
    22    28    29   ar
    23    29    30   ar
    24    30    31   ar
    25    31    32   ar
    26    32    33   ar
    27     3     4   ar
    28     4     5   ar
    29     8     9   ar
    30     9    10   ar
    31    10    11   ar
    32    11    12    1
    33    12    13   ar
    34    13    14   ar
    35    14    15   ar
    36    15    16    1
    37    15    17   ar
    38    11     6   ar
    39    17    12   ar
    40     5     1   ar
    41    33    24   ar
    42    33    28   ar
