@<TRIPOS>MOLECULE
*****
 36 40 0 0 0
SMALL
GASTEIGER

@<TRIPOS>ATOM
      1 C         139.4815  139.3687  166.2713 C.3     1  UNL1        0.0545
      2 C         139.0187  139.7334  167.6507 C.3     1  UNL1        0.0163
      3 C         140.2326  139.9785  168.4971 C.3     1  UNL1        0.0120
      4 C         140.6968  140.3554  169.8728 C.3     1  UNL1        0.0298
      5 C         142.1967  140.3753  169.8667 C.3     1  UNL1        0.1110
      6 O         143.0789  140.7023  171.0349 O.3     1  UNL1       -0.3844
      7 C         142.6594  140.0106  168.4872 C.3     1  UNL1        0.0379
      8 C         141.4456  139.7654  167.6408 C.3     1  UNL1        0.0728
      9 C         140.9813  139.3886  166.2652 C.3     1  UNL1        0.0244
     10 H         142.5295  140.9027  171.8088 H       1  UNL1        0.2103
     11 C         142.6585  139.5523  166.7845 C.2     1  UNL1        0.2251
     12 O         143.6188  138.4459  167.1062 O.2     1  UNL1       -0.2749
     13 N         142.9112  140.4458  165.6063 N.am    1  UNL1       -0.2750
     14 C         144.1241  140.2326  164.7499 C.3     1  UNL1        0.1000
     15 C         144.3767  141.1260  163.5718 C.3     1  UNL1        0.0670
     16 C         143.4164  142.2325  163.2500 C.ar    1  UNL1        0.0583
     17 N         143.6691  143.1259  162.0719 N.ar    1  UNL1       -0.2484
     18 C         142.7088  144.2324  161.7501 C.ar    1  UNL1        0.1023
     19 C         141.4959  144.4455  162.6065 C.ar    1  UNL1        0.0902
     20 C         141.2432  143.5521  163.7846 C.ar    1  UNL1        0.0040
     21 C         142.2035  142.4456  164.1064 C.ar    1  UNL1        0.0113
     22 C         141.9509  141.5522  165.2845 C.3     1  UNL1        0.1213
     23 C         140.5356  145.5520  162.2847 C.3     1  UNL1        0.4200
     24 F         139.5753  146.6585  161.9630 F       1  UNL1       -0.1658
     25 F         139.9611  145.4554  163.6670 F       1  UNL1       -0.1658
     26 F         141.1101  145.6486  160.9025 F       1  UNL1       -0.1658
     27 N         138.5992  139.0417  165.1030 N.3     1  UNL1       -0.2975
     28 H         139.0701  138.3068  164.5751 H       1  UNL1        0.1232
     29 C         138.0257  139.7653  162.6746 C.3     1  UNL1        0.1591
     30 C         137.6559  140.8359  161.6911 C.3     1  UNL1        0.1729
     31 O         137.4899  142.2534  162.1527 O.3     1  UNL1       -0.3511
     32 C         137.6937  142.6004  163.5978 C.3     1  UNL1        0.1437
     33 C         138.0634  141.5298  164.5812 C.3     1  UNL1        0.0503
     34 C         138.2295  140.1123  164.1196 C.3     1  UNL1        0.0865
     35 C         139.1277  138.0313  161.0843 C.3     1  UNL1        0.1742
     36 O         138.1917  138.3478  162.2130 O.3     1  UNL1       -0.3496
@<TRIPOS>BOND
     1    35    36    1
     2    36    29    1
     3    29    30    1
     4    30    31    1
     5    31    32    1
     6    32    33    1
     7    33    34    1
     8    34    27    1
     9     1    27    1
    10     1     2    1
    11     3     2    1
    12     3     4    1
    13     4     5    1
    14     5     6    1
    15     5     7    1
    16     7     8    1
    17     8    11    1
    18    11    12    2
    19    11    13   am
    20    13    14    1
    21    14    15    1
    22    15    16    1
    23    16    17   ar
    24    17    18   ar
    25    18    19   ar
    26    19    23    1
    27    23    24    1
    28    23    25    1
    29    23    26    1
    30    19    20   ar
    31    20    21   ar
    32    21    22    1
    33     8     9    1
    34    34    29    1
    35     9     1    1
    36     8     3    1
    37    22    13    1
    38    21    16   ar
    39    27    28    1
    40     6    10    1
@<TRIPOS>MOLECULE
*****
 36 40 0 0 0
SMALL
GASTEIGER

@<TRIPOS>ATOM
      1 C         139.2033  139.1363  166.5175 C.3     1  UNL1        0.0545
      2 C         138.6493  139.6779  167.8019 C.3     1  UNL1        0.0163
      3 C         139.7922  140.2217  168.6069 C.3     1  UNL1        0.0120
      4 C         140.1563  140.8925  169.8982 C.3     1  UNL1        0.0298
      5 C         141.6416  141.1015  169.9094 C.3     1  UNL1        0.1110
      6 O         142.4338  141.7401  171.0115 O.3     1  UNL1       -0.3844
      7 C         142.1956  140.5599  168.6250 C.3     1  UNL1        0.0379
      8 C         141.0527  140.0162  167.8200 C.3     1  UNL1        0.0728
      9 C         140.6886  139.3454  166.5287 C.3     1  UNL1        0.0244
     10 H         141.8362  142.0030  171.7289 H       1  UNL1        0.2103
     11 C         142.3130  139.8106  167.0331 C.2     1  UNL1        0.2251
     12 O         143.2879  138.7468  167.4427 O.2     1  UNL1       -0.2749
     13 N         142.5985  140.6690  165.8364 N.am    1  UNL1       -0.2750
     14 C         143.8588  140.4634  165.0495 C.3     1  UNL1        0.1000
     15 C         144.1442  141.3217  163.8529 C.3     1  UNL1        0.0670
     16 C         143.1693  142.3855  163.4433 C.ar    1  UNL1        0.0583
     17 N         143.4548  143.2439  162.2466 N.ar    1  UNL1       -0.2484
     18 C         142.4798  144.3077  161.8370 C.ar    1  UNL1        0.1023
     19 C         141.2195  144.5132  162.6240 C.ar    1  UNL1        0.0902
     20 C         140.9340  143.6549  163.8205 C.ar    1  UNL1        0.0040
     21 C         141.9090  142.5911  164.2302 C.ar    1  UNL1        0.0113
     22 C         141.6235  141.7328  165.4268 C.3     1  UNL1        0.1213
     23 C         140.2445  145.5770  162.2143 C.3     1  UNL1        0.4200
     24 F         139.2696  146.6408  161.8047 F       1  UNL1       -0.1658
     25 F         139.5433  145.4424  163.5335 F       1  UNL1       -0.1658
     26 F         140.9458  145.7117  160.8952 F       1  UNL1       -0.1658
     27 N         138.4111  138.4978  165.4153 N.3     1  UNL1       -0.2975
     28 H         138.4769  137.4891  165.5517 H       1  UNL1        0.1232
     29 C         138.4848  140.1084  163.3780 C.3     1  UNL1        0.1591
     30 C         138.8416  140.3759  161.9459 C.3     1  UNL1        0.1729
     31 O         139.4813  139.3005  161.1188 O.3     1  UNL1       -0.3511
     32 C         139.7643  137.9574  161.7239 C.3     1  UNL1        0.1437
     33 C         139.4076  137.6898  163.1561 C.3     1  UNL1        0.0503
     34 C         138.7678  138.7653  163.9831 C.3     1  UNL1        0.0865
     35 C         137.5225  142.5125  163.5881 C.3     1  UNL1        0.1742
     36 O         137.8451  141.1838  164.2051 O.3     1  UNL1       -0.3496
@<TRIPOS>BOND
     1    35    36    1
     2    36    29    1
     3    29    30    1
     4    30    31    1
     5    31    32    1
     6    32    33    1
     7    33    34    1
     8    34    27    1
     9     1    27    1
    10     1     2    1
    11     3     2    1
    12     3     4    1
    13     4     5    1
    14     5     6    1
    15     5     7    1
    16     7     8    1
    17     8    11    1
    18    11    12    2
    19    11    13   am
    20    13    14    1
    21    14    15    1
    22    15    16    1
    23    16    17   ar
    24    17    18   ar
    25    18    19   ar
    26    19    23    1
    27    23    24    1
    28    23    25    1
    29    23    26    1
    30    19    20   ar
    31    20    21   ar
    32    21    22    1
    33     8     9    1
    34    34    29    1
    35     9     1    1
    36     8     3    1
    37    22    13    1
    38    21    16   ar
    39    27    28    1
    40     6    10    1
@<TRIPOS>MOLECULE
*****
 36 40 0 0 0
SMALL
GASTEIGER

@<TRIPOS>ATOM
      1 C         139.2960  138.3312  165.0952 C.3     1  UNL1        0.0545
      2 C         138.4154  138.7860  166.2211 C.3     1  UNL1        0.0163
      3 C         139.2747  139.4988  167.2228 C.3     1  UNL1        0.0120
      4 C         139.2616  140.2205  168.5377 C.3     1  UNL1        0.0298
      5 C         140.6652  140.6522  168.8436 C.3     1  UNL1        0.1110
      6 O         141.1100  141.4064  170.0616 O.3     1  UNL1       -0.3844
      7 C         141.5458  140.1973  167.7178 C.3     1  UNL1        0.0379
      8 C         140.6865  139.4845  166.7160 C.3     1  UNL1        0.0728
      9 C         140.6996  138.7629  165.4011 C.3     1  UNL1        0.0244
     10 H         140.3452  141.5776  170.6331 H       1  UNL1        0.2103
     11 C         142.0982  139.4702  166.2092 C.2     1  UNL1        0.2251
     12 O         143.0801  138.4751  166.7528 O.2     1  UNL1       -0.2749
     13 N         142.5280  140.4511  165.1589 N.am    1  UNL1       -0.2750
     14 C         143.9397  140.4368  164.6521 C.3     1  UNL1        0.1000
     15 C         144.3694  141.4176  163.6018 C.3     1  UNL1        0.0670
     16 C         143.3874  142.4128  163.0582 C.ar    1  UNL1        0.0583
     17 N         143.8172  143.3937  162.0079 N.ar    1  UNL1       -0.2484
     18 C         142.8353  144.3889  161.4643 C.ar    1  UNL1        0.1023
     19 C         141.4235  144.4031  161.9712 C.ar    1  UNL1        0.0902
     20 C         140.9938  143.4223  163.0215 C.ar    1  UNL1        0.0040
     21 C         141.9758  142.4271  163.5650 C.ar    1  UNL1        0.0113
     22 C         141.5460  141.4463  164.6153 C.3     1  UNL1        0.1213
     23 C         140.4416  145.3983  161.4277 C.3     1  UNL1        0.4200
     24 F         139.4596  146.3934  160.8841 F       1  UNL1       -0.1658
     25 F         140.6861  146.2862  162.6116 F       1  UNL1       -0.1658
     26 F         140.1971  144.5104  160.2437 F       1  UNL1       -0.1658
     27 N         138.8512  137.5770  163.8772 N.3     1  UNL1       -0.2975
     28 H         139.4457  136.7510  163.8089 H       1  UNL1        0.1232
     29 C         140.0698  138.0780  161.6381 C.3     1  UNL1        0.1591
     30 C         140.0955  138.7425  160.2935 C.3     1  UNL1        0.1729
     31 O         138.9285  139.5705  159.8437 O.3     1  UNL1       -0.3511
     32 C         137.7356  139.7340  160.7383 C.3     1  UNL1        0.1437
     33 C         137.7098  139.0695  162.0828 C.3     1  UNL1        0.0503
     34 C         138.8770  138.2415  162.5327 C.3     1  UNL1        0.0865
     35 C         142.5621  137.9019  162.3503 C.3     1  UNL1        0.1742
     36 O         141.2368  137.2501  162.0880 O.3     1  UNL1       -0.3496
@<TRIPOS>BOND
     1    35    36    1
     2    36    29    1
     3    29    30    1
     4    30    31    1
     5    31    32    1
     6    32    33    1
     7    33    34    1
     8    34    27    1
     9     1    27    1
    10     1     2    1
    11     3     2    1
    12     3     4    1
    13     4     5    1
    14     5     6    1
    15     5     7    1
    16     7     8    1
    17     8    11    1
    18    11    12    2
    19    11    13   am
    20    13    14    1
    21    14    15    1
    22    15    16    1
    23    16    17   ar
    24    17    18   ar
    25    18    19   ar
    26    19    23    1
    27    23    24    1
    28    23    25    1
    29    23    26    1
    30    19    20   ar
    31    20    21   ar
    32    21    22    1
    33     8     9    1
    34    34    29    1
    35     9     1    1
    36     8     3    1
    37    22    13    1
    38    21    16   ar
    39    27    28    1
    40     6    10    1
@<TRIPOS>MOLECULE
*****
 36 40 0 0 0
SMALL
GASTEIGER

@<TRIPOS>ATOM
      1 C         141.0507  142.8746  165.8217 C.3     1  UNL1        0.0545
      2 C         139.6535  143.3797  165.6157 C.3     1  UNL1        0.0163
      3 C         139.6483  144.2407  164.3875 C.3     1  UNL1        0.0120
      4 C         138.7815  145.0851  163.5010 C.3     1  UNL1        0.0298
      5 C         139.6399  145.6339  162.4001 C.3     1  UNL1        0.1110
      6 O         139.1814  146.5305  161.2883 O.3     1  UNL1       -0.3844
      7 C         141.0371  145.1287  162.6061 C.3     1  UNL1        0.0379
      8 C         141.0424  144.2677  163.8343 C.3     1  UNL1        0.0728
      9 C         141.9091  143.4234  164.7208 C.3     1  UNL1        0.0244
     10 H         138.2327  146.7073  161.3859 H       1  UNL1        0.2103
     11 C         142.4364  144.2947  163.2813 C.2     1  UNL1        0.2251
     12 O         143.4389  145.2708  163.8217 O.2     1  UNL1       -0.2749
     13 N         142.8279  143.3454  162.1878 N.am    1  UNL1       -0.2750
     14 C         144.2220  143.3723  161.6347 C.3     1  UNL1        0.1000
     15 C         144.6134  142.4231  160.5413 C.3     1  UNL1        0.0670
     16 C         143.6109  141.4469  160.0009 C.ar    1  UNL1        0.0583
     17 N         144.0025  140.4977  158.9074 N.ar    1  UNL1       -0.2484
     18 C         142.9999  139.5215  158.3670 C.ar    1  UNL1        0.1023
     19 C         141.6058  139.4946  158.9202 C.ar    1  UNL1        0.0902
     20 C         141.2144  140.4438  160.0136 C.ar    1  UNL1        0.0040
     21 C         142.2169  141.4200  160.5540 C.ar    1  UNL1        0.0113
     22 C         141.8254  142.3692  161.6474 C.3     1  UNL1        0.1213
     23 C         140.6033  138.5184  158.3798 C.3     1  UNL1        0.4200
     24 F         139.6008  137.5422  157.8394 F       1  UNL1       -0.1658
     25 F         141.6390  137.9745  157.4409 F       1  UNL1       -0.1658
     26 F         139.5676  139.0623  159.3187 F       1  UNL1       -0.1658
     27 N         141.5092  141.9780  166.9335 N.3     1  UNL1       -0.2975
     28 H         141.5723  141.0367  166.5457 H       1  UNL1        0.1232
     29 C         139.8791  140.6484  168.4583 C.3     1  UNL1        0.1591
     30 C         139.0727  140.5442  169.7188 C.3     1  UNL1        0.1729
     31 O         139.0898  141.6655  170.7149 O.3     1  UNL1       -0.3511
     32 C         139.9134  142.8910  170.4506 C.3     1  UNL1        0.1437
     33 C         140.7199  142.9952  169.1902 C.3     1  UNL1        0.0503
     34 C         140.7027  141.8738  168.1940 C.3     1  UNL1        0.0865
     35 C         138.6583  139.3147  166.5925 C.3     1  UNL1        0.1742
     36 O         139.8620  139.5271  167.4622 O.3     1  UNL1       -0.3496
@<TRIPOS>BOND
     1    35    36    1
     2    36    29    1
     3    29    30    1
     4    30    31    1
     5    31    32    1
     6    32    33    1
     7    33    34    1
     8    34    27    1
     9     1    27    1
    10     1     2    1
    11     3     2    1
    12     3     4    1
    13     4     5    1
    14     5     6    1
    15     5     7    1
    16     7     8    1
    17     8    11    1
    18    11    12    2
    19    11    13   am
    20    13    14    1
    21    14    15    1
    22    15    16    1
    23    16    17   ar
    24    17    18   ar
    25    18    19   ar
    26    19    23    1
    27    23    24    1
    28    23    25    1
    29    23    26    1
    30    19    20   ar
    31    20    21   ar
    32    21    22    1
    33     8     9    1
    34    34    29    1
    35     9     1    1
    36     8     3    1
    37    22    13    1
    38    21    16   ar
    39    27    28    1
    40     6    10    1
@<TRIPOS>MOLECULE
*****
 36 40 0 0 0
SMALL
GASTEIGER

@<TRIPOS>ATOM
      1 C         140.9750  141.5343  160.0846 C.3     1  UNL1        0.0545
      2 C         141.0444  140.2018  159.3995 C.3     1  UNL1        0.0163
      3 C         142.1464  139.4092  160.0378 C.3     1  UNL1        0.0120
      4 C         142.8704  138.0959  160.0088 C.3     1  UNL1        0.0298
      5 C         143.9296  138.1270  161.0706 C.3     1  UNL1        0.1110
      6 O         144.8896  137.0198  161.3909 O.3     1  UNL1       -0.3844
      7 C         143.8602  139.4595  161.7557 C.3     1  UNL1        0.0379
      8 C         142.7582  140.2520  161.1174 C.3     1  UNL1        0.0728
      9 C         142.0341  141.5654  161.1463 C.3     1  UNL1        0.0244
     10 H         144.7236  136.2673  160.8017 H       1  UNL1        0.2103
     11 C         143.3698  141.0948  162.1970 C.2     1  UNL1        0.2251
     12 O         144.5889  141.9187  161.9051 O.2     1  UNL1       -0.2749
     13 N         142.7625  141.1138  163.5684 N.am    1  UNL1       -0.2750
     14 C         143.3742  141.9566  164.6480 C.3     1  UNL1        0.1000
     15 C         142.7668  141.9755  166.0194 C.3     1  UNL1        0.0670
     16 C         141.5478  141.1516  166.3112 C.ar    1  UNL1        0.0583
     17 N         140.9404  141.1705  167.6826 N.ar    1  UNL1       -0.2484
     18 C         139.7214  140.3466  167.9744 C.ar    1  UNL1        0.1023
     19 C         139.1097  139.5038  166.8948 C.ar    1  UNL1        0.0902
     20 C         139.7170  139.4849  165.5234 C.ar    1  UNL1        0.0040
     21 C         140.9361  140.3088  165.2316 C.ar    1  UNL1        0.0113
     22 C         141.5434  140.2899  163.8602 C.3     1  UNL1        0.1213
     23 C         137.8907  138.6799  167.1866 C.3     1  UNL1        0.4200
     24 F         136.6716  137.8560  167.4784 F       1  UNL1       -0.1658
     25 F         137.9443  138.1095  165.8003 F       1  UNL1       -0.1658
     26 F         137.8370  139.2503  168.5729 F       1  UNL1       -0.1658
     27 N         140.0149  142.6415  159.7643 N.3     1  UNL1       -0.2975
     28 H         140.4375  143.1902  159.0154 H       1  UNL1        0.1232
     29 C         138.5641  143.2208  161.8402 C.3     1  UNL1        0.1591
     30 C         138.1538  144.1903  162.9087 C.3     1  UNL1        0.1729
     31 O         138.7841  145.5500  162.9699 O.3     1  UNL1       -0.3511
     32 C         139.8248  145.9403  161.9624 C.3     1  UNL1        0.1437
     33 C         140.2351  144.9708  160.8939 C.3     1  UNL1        0.0503
     34 C         139.6047  143.6110  160.8328 C.3     1  UNL1        0.0865
     35 C         137.4436  141.2044  163.0355 C.3     1  UNL1        0.1742
     36 O         137.9337  141.8611  161.7790 O.3     1  UNL1       -0.3496
@<TRIPOS>BOND
     1    35    36    1
     2    36    29    1
     3    29    30    1
     4    30    31    1
     5    31    32    1
     6    32    33    1
     7    33    34    1
     8    34    27    1
     9     1    27    1
    10     1     2    1
    11     3     2    1
    12     3     4    1
    13     4     5    1
    14     5     6    1
    15     5     7    1
    16     7     8    1
    17     8    11    1
    18    11    12    2
    19    11    13   am
    20    13    14    1
    21    14    15    1
    22    15    16    1
    23    16    17   ar
    24    17    18   ar
    25    18    19   ar
    26    19    23    1
    27    23    24    1
    28    23    25    1
    29    23    26    1
    30    19    20   ar
    31    20    21   ar
    32    21    22    1
    33     8     9    1
    34    34    29    1
    35     9     1    1
    36     8     3    1
    37    22    13    1
    38    21    16   ar
    39    27    28    1
    40     6    10    1
@<TRIPOS>MOLECULE
*****
 36 40 0 0 0
SMALL
GASTEIGER

@<TRIPOS>ATOM
      1 C         141.0971  144.3473  161.0383 C.3     1  UNL1        0.0545
      2 C         141.2316  145.3585  162.1380 C.3     1  UNL1        0.0163
      3 C         142.3318  144.9060  163.0517 C.3     1  UNL1        0.0120
      4 C         143.0950  145.2512  164.2961 C.3     1  UNL1        0.0298
      5 C         144.1120  144.1737  164.5301 C.3     1  UNL1        0.1110
      6 O         145.0916  144.1173  165.6647 O.3     1  UNL1       -0.3844
      7 C         143.9774  143.1626  163.4304 C.3     1  UNL1        0.0379
      8 C         142.8772  143.6151  162.5167 C.3     1  UNL1        0.0728
      9 C         142.1141  143.2699  161.2723 C.3     1  UNL1        0.0244
     10 H         144.9703  144.8922  166.2354 H       1  UNL1        0.2103
     11 C         143.4226  142.3242  161.9816 C.2     1  UNL1        0.2251
     12 O         144.5692  142.3379  161.0147 O.2     1  UNL1       -0.2749
     13 N         142.8212  141.0196  162.4135 N.am    1  UNL1       -0.2750
     14 C         143.3666  139.7288  161.8785 C.3     1  UNL1        0.1000
     15 C         142.7652  138.4243  162.3104 C.3     1  UNL1        0.0670
     16 C         141.6186  138.4106  163.2773 C.ar    1  UNL1        0.0583
     17 N         141.0173  137.1060  163.7092 N.ar    1  UNL1       -0.2484
     18 C         139.8706  137.0923  164.6762 C.ar    1  UNL1        0.1023
     19 C         139.3253  138.3832  165.2112 C.ar    1  UNL1        0.0902
     20 C         139.9266  139.6877  164.7793 C.ar    1  UNL1        0.0040
     21 C         141.0733  139.7014  163.8124 C.ar    1  UNL1        0.0113
     22 C         141.6746  141.0059  163.3805 C.3     1  UNL1        0.1213
     23 C         138.1786  138.3695  166.1782 C.3     1  UNL1        0.4200
     24 F         137.0320  138.3558  167.1452 F       1  UNL1       -0.1658
     25 F         138.1850  139.8692  166.2070 F       1  UNL1       -0.1658
     26 F         138.1722  136.8698  166.1494 F       1  UNL1       -0.1658
     27 N         140.1174  144.4037  159.9037 N.3     1  UNL1       -0.2975
     28 H         139.2780  144.8593  160.2618 H       1  UNL1        0.1232
     29 C         138.5176  142.3595  159.7954 C.3     1  UNL1        0.1591
     30 C         138.0711  141.0934  159.1264 C.3     1  UNL1        0.1729
     31 O         138.7780  140.6052  157.8969 O.3     1  UNL1       -0.3511
     32 C         139.9315  141.3832  157.3362 C.3     1  UNL1        0.1437
     33 C         140.3779  142.6494  158.0051 C.3     1  UNL1        0.0503
     34 C         139.6709  143.1376  159.2348 C.3     1  UNL1        0.0865
     35 C         138.2196  142.3409  162.3763 C.3     1  UNL1        0.1742
     36 O         137.8106  142.8477  161.0250 O.3     1  UNL1       -0.3496
@<TRIPOS>BOND
     1    35    36    1
     2    36    29    1
     3    29    30    1
     4    30    31    1
     5    31    32    1
     6    32    33    1
     7    33    34    1
     8    34    27    1
     9     1    27    1
    10     1     2    1
    11     3     2    1
    12     3     4    1
    13     4     5    1
    14     5     6    1
    15     5     7    1
    16     7     8    1
    17     8    11    1
    18    11    12    2
    19    11    13   am
    20    13    14    1
    21    14    15    1
    22    15    16    1
    23    16    17   ar
    24    17    18   ar
    25    18    19   ar
    26    19    23    1
    27    23    24    1
    28    23    25    1
    29    23    26    1
    30    19    20   ar
    31    20    21   ar
    32    21    22    1
    33     8     9    1
    34    34    29    1
    35     9     1    1
    36     8     3    1
    37    22    13    1
    38    21    16   ar
    39    27    28    1
    40     6    10    1
@<TRIPOS>MOLECULE
*****
 36 40 0 0 0
SMALL
GASTEIGER

@<TRIPOS>ATOM
      1 C         141.9092  142.7852  162.2496 C.3     1  UNL1        0.0545
      2 C         143.2767  142.5184  161.6940 C.3     1  UNL1        0.0163
      3 C         143.4959  141.0345  161.6948 C.3     1  UNL1        0.0120
      4 C         144.4766  139.9525  161.3519 C.3     1  UNL1        0.0298
      5 C         143.8506  138.6335  161.6960 C.3     1  UNL1        0.1110
      6 O         144.4815  137.2845  161.5161 O.3     1  UNL1       -0.3844
      7 C         142.4831  138.9003  162.2515 C.3     1  UNL1        0.0379
      8 C         142.2638  140.3842  162.2508 C.3     1  UNL1        0.0728
      9 C         141.2832  141.4662  162.5936 C.3     1  UNL1        0.0244
     10 H         145.3686  137.3902  161.1383 H       1  UNL1        0.2103
     11 C         141.0318  139.7339  162.8067 C.2     1  UNL1        0.2251
     12 O         140.1518  138.9089  161.9152 O.2     1  UNL1       -0.2749
     13 N         140.6796  139.9088  164.2544 N.am    1  UNL1       -0.2750
     14 C         139.4476  139.2585  164.8103 C.3     1  UNL1        0.1000
     15 C         139.0955  139.4333  166.2579 C.3     1  UNL1        0.0670
     16 C         139.9755  140.2584  167.1494 C.ar    1  UNL1        0.0583
     17 N         139.6233  140.4332  168.5971 N.ar    1  UNL1       -0.2484
     18 C         140.5033  141.2583  169.4886 C.ar    1  UNL1        0.1023
     19 C         141.7354  141.9086  168.9326 C.ar    1  UNL1        0.0902
     20 C         142.0875  141.7338  167.4850 C.ar    1  UNL1        0.0040
     21 C         141.2075  140.9087  166.5935 C.ar    1  UNL1        0.0113
     22 C         141.5596  140.7338  165.1459 C.3     1  UNL1        0.1213
     23 C         142.6154  142.7337  169.8241 C.3     1  UNL1        0.4200
     24 F         143.4954  143.5588  170.7157 F       1  UNL1       -0.1658
     25 F         143.8076  141.9361  169.3855 F       1  UNL1       -0.1658
     26 F         141.4231  143.5313  170.2628 F       1  UNL1       -0.1658
     27 N         141.2783  144.1342  162.4294 N.3     1  UNL1       -0.2975
     28 H         141.9770  144.7290  162.8750 H       1  UNL1        0.1232
     29 C         138.6846  144.0840  162.5700 C.3     1  UNL1        0.1591
     30 C         137.4241  144.2217  163.3715 C.3     1  UNL1        0.1729
     31 O         137.4970  144.5471  164.8339 O.3     1  UNL1       -0.3511
     32 C         138.8304  144.7349  165.4949 C.3     1  UNL1        0.1437
     33 C         140.0909  144.5973  164.6934 C.3     1  UNL1        0.0503
     34 C         140.0179  144.2719  163.2309 C.3     1  UNL1        0.0865
     35 C         138.3073  142.3580  160.6651 C.3     1  UNL1        0.1742
     36 O         138.6116  143.7586  161.1076 O.3     1  UNL1       -0.3496
@<TRIPOS>BOND
     1    35    36    1
     2    36    29    1
     3    29    30    1
     4    30    31    1
     5    31    32    1
     6    32    33    1
     7    33    34    1
     8    34    27    1
     9     1    27    1
    10     1     2    1
    11     3     2    1
    12     3     4    1
    13     4     5    1
    14     5     6    1
    15     5     7    1
    16     7     8    1
    17     8    11    1
    18    11    12    2
    19    11    13   am
    20    13    14    1
    21    14    15    1
    22    15    16    1
    23    16    17   ar
    24    17    18   ar
    25    18    19   ar
    26    19    23    1
    27    23    24    1
    28    23    25    1
    29    23    26    1
    30    19    20   ar
    31    20    21   ar
    32    21    22    1
    33     8     9    1
    34    34    29    1
    35     9     1    1
    36     8     3    1
    37    22    13    1
    38    21    16   ar
    39    27    28    1
    40     6    10    1
@<TRIPOS>MOLECULE
*****
 36 40 0 0 0
SMALL
GASTEIGER

@<TRIPOS>ATOM
      1 C         142.0812  138.3702  163.8739 C.3     1  UNL1        0.0545
      2 C         141.0892  137.2455  163.9054 C.3     1  UNL1        0.0163
      3 C         139.9780  137.6335  164.8353 C.3     1  UNL1        0.0120
      4 C         138.6781  137.1782  165.4295 C.3     1  UNL1        0.0298
      5 C         138.1800  138.2613  166.3399 C.3     1  UNL1        0.1110
      6 O         136.9124  138.2259  167.1412 O.3     1  UNL1       -0.3844
      7 C         139.1721  139.3859  166.3085 C.3     1  UNL1        0.0379
      8 C         140.2833  138.9980  165.3786 C.3     1  UNL1        0.0728
      9 C         141.5831  139.4532  164.7844 C.3     1  UNL1        0.0244
     10 H         136.4530  137.3864  166.9827 H       1  UNL1        0.2103
     11 C         140.5886  140.3624  165.9218 C.2     1  UNL1        0.2251
     12 O         140.9310  140.5328  167.3722 O.2     1  UNL1       -0.2749
     13 N         140.5514  141.5564  165.0146 N.am    1  UNL1       -0.2750
     14 C         140.8567  142.9208  165.5578 C.3     1  UNL1        0.1000
     15 C         140.8196  144.1148  164.6506 C.3     1  UNL1        0.0670
     16 C         140.4772  143.9443  163.2002 C.ar    1  UNL1        0.0583
     17 N         140.4400  145.1384  162.2930 N.ar    1  UNL1       -0.2484
     18 C         140.0976  144.9680  160.8426 C.ar    1  UNL1        0.1023
     19 C         139.7923  143.6034  160.2994 C.ar    1  UNL1        0.0902
     20 C         139.8294  142.4095  161.2066 C.ar    1  UNL1        0.0040
     21 C         140.1719  142.5799  162.6570 C.ar    1  UNL1        0.0113
     22 C         140.2090  141.3860  163.5642 C.3     1  UNL1        0.1213
     23 C         139.4499  143.4330  158.8490 C.3     1  UNL1        0.4200
     24 F         139.1074  143.2625  157.3986 F       1  UNL1       -0.1658
     25 F         139.0724  142.0042  159.1060 F       1  UNL1       -0.1658
     26 F         139.8273  144.8618  158.5920 F       1  UNL1       -0.1658
     27 N         143.3488  138.4056  163.0727 N.3     1  UNL1       -0.2975
     28 H         143.9995  137.7614  163.5223 H       1  UNL1        0.1232
     29 C         143.8141  140.5460  161.6755 C.3     1  UNL1        0.1591
     30 C         144.5471  141.8412  161.4883 C.3     1  UNL1        0.1729
     31 O         145.5477  142.2914  162.5110 O.3     1  UNL1       -0.3511
     32 C         145.8154  141.4463  163.7211 C.3     1  UNL1        0.1437
     33 C         145.0825  140.1510  163.9083 C.3     1  UNL1        0.0503
     34 C         144.0818  139.7008  162.8855 C.3     1  UNL1        0.0865
     35 C         143.1984  139.0709  159.6273 C.3     1  UNL1        0.1742
     36 O         142.8135  140.0958  160.6527 O.3     1  UNL1       -0.3496
@<TRIPOS>BOND
     1    35    36    1
     2    36    29    1
     3    29    30    1
     4    30    31    1
     5    31    32    1
     6    32    33    1
     7    33    34    1
     8    34    27    1
     9     1    27    1
    10     1     2    1
    11     3     2    1
    12     3     4    1
    13     4     5    1
    14     5     6    1
    15     5     7    1
    16     7     8    1
    17     8    11    1
    18    11    12    2
    19    11    13   am
    20    13    14    1
    21    14    15    1
    22    15    16    1
    23    16    17   ar
    24    17    18   ar
    25    18    19   ar
    26    19    23    1
    27    23    24    1
    28    23    25    1
    29    23    26    1
    30    19    20   ar
    31    20    21   ar
    32    21    22    1
    33     8     9    1
    34    34    29    1
    35     9     1    1
    36     8     3    1
    37    22    13    1
    38    21    16   ar
    39    27    28    1
    40     6    10    1
@<TRIPOS>MOLECULE
*****
 36 40 0 0 0
SMALL
GASTEIGER

@<TRIPOS>ATOM
      1 C         141.7520  139.4415  166.6724 C.3     1  UNL1        0.0545
      2 C         140.5646  139.4623  167.5887 C.3     1  UNL1        0.0163
      3 C         140.5295  140.7974  168.2715 C.3     1  UNL1        0.0120
      4 C         139.7739  141.6355  169.2598 C.3     1  UNL1        0.0298
      5 C         140.4726  142.9577  169.3763 C.3     1  UNL1        0.1110
      6 O         140.0568  144.1003  170.2549 O.3     1  UNL1       -0.3844
      7 C         141.6600  142.9369  168.4600 C.3     1  UNL1        0.0379
      8 C         141.6952  141.6018  167.7772 C.3     1  UNL1        0.0728
      9 C         142.4507  140.7637  166.7889 C.3     1  UNL1        0.0244
     10 H         139.2565  143.8562  170.7456 H       1  UNL1        0.2103
     11 C         142.8608  142.4060  167.2829 C.2     1  UNL1        0.2251
     12 O         144.0135  142.6966  168.1978 O.2     1  UNL1       -0.2749
     13 N         142.8739  142.9198  165.8736 N.am    1  UNL1       -0.2750
     14 C         144.0395  143.7240  165.3793 C.3     1  UNL1        0.1000
     15 C         144.0526  144.2377  163.9701 C.3     1  UNL1        0.0670
     16 C         142.8999  143.9471  163.0552 C.ar    1  UNL1        0.0583
     17 N         142.9130  144.4609  161.6459 N.ar    1  UNL1       -0.2484
     18 C         141.7604  144.1703  160.7310 C.ar    1  UNL1        0.1023
     19 C         140.5947  143.3660  161.2254 C.ar    1  UNL1        0.0902
     20 C         140.5817  142.8523  162.6346 C.ar    1  UNL1        0.0040
     21 C         141.7343  143.1429  163.5495 C.ar    1  UNL1        0.0113
     22 C         141.7213  142.6292  164.9587 C.3     1  UNL1        0.1213
     23 C         139.4421  143.0755  160.3105 C.3     1  UNL1        0.4200
     24 F         138.2894  142.7849  159.3956 F       1  UNL1       -0.1658
     25 F         140.4011  142.7881  159.1936 F       1  UNL1       -0.1658
     26 F         138.4830  143.3629  161.4275 F       1  UNL1       -0.1658
     27 N         142.1678  138.2989  165.7938 N.3     1  UNL1       -0.2975
     28 H         143.1629  138.4196  165.6050 H       1  UNL1        0.1232
     29 C         142.2748  138.2721  163.1981 C.3     1  UNL1        0.1591
     30 C         141.6048  138.0631  161.8724 C.3     1  UNL1        0.1729
     31 O         140.1578  137.6718  161.8168 O.3     1  UNL1       -0.3511
     32 C         139.3808  137.4895  163.0869 C.3     1  UNL1        0.1437
     33 C         140.0508  137.6985  164.4126 C.3     1  UNL1        0.0503
     34 C         141.4978  138.0899  164.4681 C.3     1  UNL1        0.0865
     35 C         144.1052  140.1126  163.3100 C.3     1  UNL1        0.1742
     36 O         143.7217  138.6634  163.2537 O.3     1  UNL1       -0.3496
@<TRIPOS>BOND
     1    35    36    1
     2    36    29    1
     3    29    30    1
     4    30    31    1
     5    31    32    1
     6    32    33    1
     7    33    34    1
     8    34    27    1
     9     1    27    1
    10     1     2    1
    11     3     2    1
    12     3     4    1
    13     4     5    1
    14     5     6    1
    15     5     7    1
    16     7     8    1
    17     8    11    1
    18    11    12    2
    19    11    13   am
    20    13    14    1
    21    14    15    1
    22    15    16    1
    23    16    17   ar
    24    17    18   ar
    25    18    19   ar
    26    19    23    1
    27    23    24    1
    28    23    25    1
    29    23    26    1
    30    19    20   ar
    31    20    21   ar
    32    21    22    1
    33     8     9    1
    34    34    29    1
    35     9     1    1
    36     8     3    1
    37    22    13    1
    38    21    16   ar
    39    27    28    1
    40     6    10    1
