@<TRIPOS>MOLECULE
*****
 26 28 0 0 0
SMALL
GASTEIGER

@<TRIPOS>ATOM
      1 C         139.7684  140.5302  167.9612 C.ar    1  UNL1        0.0218
      2 C         138.8138  139.6195  168.6749 C.ar    1  UNL1        0.0989
      3 N         137.8395  138.7912  167.8910 N.ar    1  UNL1       -0.2426
      4 C         137.8198  138.8735  166.3933 C.ar    1  UNL1        0.0962
      5 C         138.7745  139.7842  165.6796 C.ar    1  UNL1        0.0166
      6 C         139.7488  140.6125  166.4636 C.ar    1  UNL1        0.0006
      7 C         142.0838  140.7942  169.1100 C.ar    1  UNL1        0.1409
      8 C         143.0580  141.6225  169.8939 C.ar    1  UNL1        0.0665
      9 C         142.6913  143.0153  170.3131 C.ar    1  UNL1        0.1432
     10 F         143.6656  143.8437  171.0971 F       1  UNL1       -0.2041
     11 C         141.3503  143.5797  169.9483 C.ar    1  UNL1        0.0298
     12 C         140.3760  142.7513  169.1643 C.ar    1  UNL1        0.0054
     13 C         140.7428  141.3586  168.7452 C.ar    1  UNL1        0.0356
     14 C         143.0209  139.1547  167.3256 C.3     1  UNL1        0.2525
     15 O         142.4505  139.4014  168.6908 O.3     1  UNL1       -0.4714
     16 C         138.7548  139.8665  164.1821 C.3     1  UNL1        0.1181
     17 N         139.3450  141.0585  163.4887 N.am    1  UNL1       -0.2969
     18 C         138.4467  142.0726  162.8448 C.2     1  UNL1        0.2461
     19 O         136.9581  141.8947  162.8943 O.2     1  UNL1       -0.2701
     20 H         140.3221  141.1752  163.4562 H       1  UNL1        0.1501
     21 C         139.0369  143.2646  162.1514 C.ar    1  UNL1        0.0534
     22 C         139.6247  143.1190  160.7791 C.ar    1  UNL1        0.0045
     23 C         140.2149  144.3110  160.0857 C.ar    1  UNL1        0.0001
     24 C         140.2174  145.6486  160.7647 C.ar    1  UNL1        0.0000
     25 C         139.6297  145.7941  162.1371 C.ar    1  UNL1        0.0001
     26 C         139.0394  144.6020  162.8304 C.ar    1  UNL1        0.0045
@<TRIPOS>BOND
     1    14    15    1
     2    15     7    1
     3     7     8   ar
     4     8     9   ar
     5     9    10    1
     6     9    11   ar
     7    11    12   ar
     8    12    13   ar
     9    13     1    1
    10     1     2   ar
    11     2     3   ar
    12     3     4   ar
    13     4     5   ar
    14     5    16    1
    15    16    17    1
    16    17    18   am
    17    18    19    2
    18    18    21    1
    19    21    22   ar
    20    22    23   ar
    21    23    24   ar
    22    24    25   ar
    23    25    26   ar
    24     5     6   ar
    25    13     7   ar
    26     6     1   ar
    27    26    21   ar
    28    17    20    1
@<TRIPOS>MOLECULE
*****
 26 28 0 0 0
SMALL
GASTEIGER

@<TRIPOS>ATOM
      1 C         142.3099  140.3971  167.4582 C.ar    1  UNL1        0.0218
      2 C         142.9000  139.0825  167.8750 C.ar    1  UNL1        0.0989
      3 N         143.7026  138.2769  166.8969 N.ar    1  UNL1       -0.2426
      4 C         143.9151  138.7857  165.5019 C.ar    1  UNL1        0.0962
      5 C         143.3251  140.1003  165.0851 C.ar    1  UNL1        0.0166
      6 C         142.5224  140.9060  166.0633 C.ar    1  UNL1        0.0006
      7 C         140.1513  140.7267  168.8659 C.ar    1  UNL1        0.1409
      8 C         139.3487  141.5324  169.8441 C.ar    1  UNL1        0.0665
      9 C         139.9022  142.8141  170.3926 C.ar    1  UNL1        0.1432
     10 F         139.0995  143.6198  171.3707 F       1  UNL1       -0.2041
     11 C         141.2582  143.2902  169.9630 C.ar    1  UNL1        0.0298
     12 C         142.0607  142.4845  168.9849 C.ar    1  UNL1        0.0054
     13 C         141.5073  141.2028  168.4363 C.ar    1  UNL1        0.0356
     14 C         138.8656  139.4437  167.0083 C.3     1  UNL1        0.2525
     15 O         139.5978  139.4450  168.3174 O.3     1  UNL1       -0.4714
     16 C         143.5376  140.6092  163.6902 C.3     1  UNL1        0.1181
     17 N         142.5618  141.5762  163.0879 N.am    1  UNL1       -0.2969
     18 C         142.9469  143.0144  162.9052 C.2     1  UNL1        0.2461
     19 O         144.3077  143.4856  163.3249 O.2     1  UNL1       -0.2701
     20 H         141.6687  141.2669  162.8124 H       1  UNL1        0.1501
     21 C         141.9711  143.9814  162.3029 C.ar    1  UNL1        0.0534
     22 C         141.0224  144.7371  163.1853 C.ar    1  UNL1        0.0045
     23 C         140.0466  145.7041  162.5830 C.ar    1  UNL1        0.0001
     24 C         140.0196  145.9153  161.0982 C.ar    1  UNL1        0.0000
     25 C         140.9683  145.1595  160.2157 C.ar    1  UNL1        0.0001
     26 C         141.9441  144.1925  160.8181 C.ar    1  UNL1        0.0045
@<TRIPOS>BOND
     1    14    15    1
     2    15     7    1
     3     7     8   ar
     4     8     9   ar
     5     9    10    1
     6     9    11   ar
     7    11    12   ar
     8    12    13   ar
     9    13     1    1
    10     1     2   ar
    11     2     3   ar
    12     3     4   ar
    13     4     5   ar
    14     5    16    1
    15    16    17    1
    16    17    18   am
    17    18    19    2
    18    18    21    1
    19    21    22   ar
    20    22    23   ar
    21    23    24   ar
    22    24    25   ar
    23    25    26   ar
    24     5     6   ar
    25    13     7   ar
    26     6     1   ar
    27    26    21   ar
    28    17    20    1
@<TRIPOS>MOLECULE
*****
 26 28 0 0 0
SMALL
GASTEIGER

@<TRIPOS>ATOM
      1 C         142.7498  139.8091  166.4086 C.ar    1  UNL1        0.0218
      2 C         143.5146  138.5210  166.3325 C.ar    1  UNL1        0.0989
      3 N         144.6781  138.3938  165.3944 N.ar    1  UNL1       -0.2426
      4 C         145.0768  139.5549  164.5323 C.ar    1  UNL1        0.0962
      5 C         144.3120  140.8430  164.6084 C.ar    1  UNL1        0.0166
      6 C         143.1485  140.9701  165.5465 C.ar    1  UNL1        0.0006
      7 C         141.8144  140.3326  168.7752 C.ar    1  UNL1        0.1409
      8 C         140.6508  140.4597  169.7133 C.ar    1  UNL1        0.0665
      9 C         139.2591  140.1905  169.2228 C.ar    1  UNL1        0.1432
     10 F         138.0955  140.3176  170.1609 F       1  UNL1       -0.2041
     11 C         139.0309  139.7941  167.7942 C.ar    1  UNL1        0.0298
     12 C         140.1944  139.6670  166.8562 C.ar    1  UNL1        0.0054
     13 C         141.5862  139.9363  167.3467 C.ar    1  UNL1        0.0356
     14 C         143.5636  141.9565  169.8015 C.3     1  UNL1        0.2525
     15 O         143.2061  140.6018  169.2657 O.3     1  UNL1       -0.4714
     16 C         144.7108  142.0040  163.7464 C.3     1  UNL1        0.1181
     17 N         143.7109  142.6269  162.8179 N.am    1  UNL1       -0.2969
     18 C         143.0275  143.9063  163.2005 C.2     1  UNL1        0.2461
     19 O         143.3440  144.5626  164.5116 O.2     1  UNL1       -0.2701
     20 H         143.5031  142.1961  161.9574 H       1  UNL1        0.1501
     21 C         142.0276  144.5292  162.2721 C.ar    1  UNL1        0.0534
     22 C         142.0709  144.2184  160.8053 C.ar    1  UNL1        0.0045
     23 C         141.0710  144.8413  159.8768 C.ar    1  UNL1        0.0001
     24 C         140.0277  145.7752  160.4151 C.ar    1  UNL1        0.0000
     25 C         139.9845  146.0860  161.8819 C.ar    1  UNL1        0.0001
     26 C         140.9844  145.4630  162.8104 C.ar    1  UNL1        0.0045
@<TRIPOS>BOND
     1    14    15    1
     2    15     7    1
     3     7     8   ar
     4     8     9   ar
     5     9    10    1
     6     9    11   ar
     7    11    12   ar
     8    12    13   ar
     9    13     1    1
    10     1     2   ar
    11     2     3   ar
    12     3     4   ar
    13     4     5   ar
    14     5    16    1
    15    16    17    1
    16    17    18   am
    17    18    19    2
    18    18    21    1
    19    21    22   ar
    20    22    23   ar
    21    23    24   ar
    22    24    25   ar
    23    25    26   ar
    24     5     6   ar
    25    13     7   ar
    26     6     1   ar
    27    26    21   ar
    28    17    20    1
@<TRIPOS>MOLECULE
*****
 26 28 0 0 0
SMALL
GASTEIGER

@<TRIPOS>ATOM
      1 C         139.9431  143.2242  164.9823 C.ar    1  UNL1        0.0218
      2 C         138.7459  142.3642  164.7048 C.ar    1  UNL1        0.0989
      3 N         137.8123  142.7170  163.5851 N.ar    1  UNL1       -0.2426
      4 C         138.0759  143.9300  162.7428 C.ar    1  UNL1        0.0962
      5 C         139.2731  144.7900  163.0203 C.ar    1  UNL1        0.0166
      6 C         140.2067  144.4371  164.1401 C.ar    1  UNL1        0.0006
      7 C         142.2979  142.4958  165.8035 C.ar    1  UNL1        0.1409
      8 C         143.2315  142.1429  166.9233 C.ar    1  UNL1        0.0665
      9 C         142.7438  142.1655  168.3416 C.ar    1  UNL1        0.1432
     10 F         143.6775  141.8126  169.4614 F       1  UNL1       -0.2041
     11 C         141.3226  142.5410  168.6402 C.ar    1  UNL1        0.0298
     12 C         140.3891  142.8939  167.5205 C.ar    1  UNL1        0.0054
     13 C         140.8768  142.8713  166.1021 C.ar    1  UNL1        0.0356
     14 C         143.8098  143.4693  163.9283 C.3     1  UNL1        0.2525
     15 O         142.7856  142.4732  164.3852 O.3     1  UNL1       -0.4714
     16 C         139.5367  146.0029  162.1781 C.3     1  UNL1        0.1181
     17 N         139.7276  145.8605  160.6971 N.am    1  UNL1       -0.2969
     18 C         141.0020  145.2819  160.1573 C.2     1  UNL1        0.2461
     19 O         142.0855  144.8458  161.0986 O.2     1  UNL1       -0.2701
     20 H         139.0165  146.1467  160.0794 H       1  UNL1        0.1501
     21 C         141.1929  145.1396  158.6764 C.ar    1  UNL1        0.0534
     22 C         142.2722  144.2455  158.1418 C.ar    1  UNL1        0.0045
     23 C         142.4631  144.1031  156.6609 C.ar    1  UNL1        0.0001
     24 C         141.5746  144.8548  155.7144 C.ar    1  UNL1        0.0000
     25 C         140.4953  145.7489  156.2490 C.ar    1  UNL1        0.0001
     26 C         140.3045  145.8912  157.7300 C.ar    1  UNL1        0.0045
@<TRIPOS>BOND
     1    14    15    1
     2    15     7    1
     3     7     8   ar
     4     8     9   ar
     5     9    10    1
     6     9    11   ar
     7    11    12   ar
     8    12    13   ar
     9    13     1    1
    10     1     2   ar
    11     2     3   ar
    12     3     4   ar
    13     4     5   ar
    14     5    16    1
    15    16    17    1
    16    17    18   am
    17    18    19    2
    18    18    21    1
    19    21    22   ar
    20    22    23   ar
    21    23    24   ar
    22    24    25   ar
    23    25    26   ar
    24     5     6   ar
    25    13     7   ar
    26     6     1   ar
    27    26    21   ar
    28    17    20    1
@<TRIPOS>MOLECULE
*****
 26 28 0 0 0
SMALL
GASTEIGER

@<TRIPOS>ATOM
      1 C         143.2689  142.7198  162.7440 C.ar    1  UNL1        0.0218
      2 C         144.7049  142.8830  162.3427 C.ar    1  UNL1        0.0989
      3 N         145.7179  141.8524  162.7449 N.ar    1  UNL1       -0.2426
      4 C         145.2947  140.6585  163.5484 C.ar    1  UNL1        0.0962
      5 C         143.8587  140.4952  163.9497 C.ar    1  UNL1        0.0166
      6 C         142.8457  141.5259  163.5474 C.ar    1  UNL1        0.0006
      7 C         141.7466  143.7910  160.9315 C.ar    1  UNL1        0.1409
      8 C         140.7337  144.8217  160.5293 C.ar    1  UNL1        0.0665
      9 C         140.2301  145.8117  161.5374 C.ar    1  UNL1        0.1432
     10 F         139.2172  146.8424  161.1351 F       1  UNL1       -0.2041
     11 C         140.7395  145.7711  162.9476 C.ar    1  UNL1        0.0298
     12 C         141.7524  144.7405  163.3498 C.ar    1  UNL1        0.0054
     13 C         142.2559  143.7504  162.3417 C.ar    1  UNL1        0.0356
     14 C         143.2008  143.2412  158.8499 C.3     1  UNL1        0.2525
     15 O         142.2501  142.8010  159.9234 O.3     1  UNL1       -0.4714
     16 C         143.4355  139.3014  164.7532 C.3     1  UNL1        0.1181
     17 N         142.9761  139.4758  166.1704 N.am    1  UNL1       -0.2969
     18 C         141.5167  139.6513  166.4695 C.2     1  UNL1        0.2461
     19 O         140.5168  139.6525  165.3514 O.2     1  UNL1       -0.2701
     20 H         143.6324  139.4750  166.9042 H       1  UNL1        0.1501
     21 C         141.0573  139.8257  167.8867 C.ar    1  UNL1        0.0534
     22 C         142.0361  139.6875  169.0148 C.ar    1  UNL1        0.0045
     23 C         141.5767  139.8619  170.4320 C.ar    1  UNL1        0.0001
     24 C         140.1383  140.1745  170.7211 C.ar    1  UNL1        0.0000
     25 C         139.1595  140.3127  169.5930 C.ar    1  UNL1        0.0001
     26 C         139.6190  140.1383  168.1757 C.ar    1  UNL1        0.0045
@<TRIPOS>BOND
     1    14    15    1
     2    15     7    1
     3     7     8   ar
     4     8     9   ar
     5     9    10    1
     6     9    11   ar
     7    11    12   ar
     8    12    13   ar
     9    13     1    1
    10     1     2   ar
    11     2     3   ar
    12     3     4   ar
    13     4     5   ar
    14     5    16    1
    15    16    17    1
    16    17    18   am
    17    18    19    2
    18    18    21    1
    19    21    22   ar
    20    22    23   ar
    21    23    24   ar
    22    24    25   ar
    23    25    26   ar
    24     5     6   ar
    25    13     7   ar
    26     6     1   ar
    27    26    21   ar
    28    17    20    1
@<TRIPOS>MOLECULE
*****
 26 28 0 0 0
SMALL
GASTEIGER

@<TRIPOS>ATOM
      1 C         139.9282  142.2925  166.2690 C.ar    1  UNL1        0.0218
      2 C         139.3306  140.9383  166.0258 C.ar    1  UNL1        0.0989
      3 N         138.4393  140.7137  164.8405 N.ar    1  UNL1       -0.2426
      4 C         138.1454  141.8433  163.8983 C.ar    1  UNL1        0.0962
      5 C         138.7430  143.1975  164.1414 C.ar    1  UNL1        0.0166
      6 C         139.6344  143.4221  165.3268 C.ar    1  UNL1        0.0006
      7 C         142.2569  142.0913  167.4033 C.ar    1  UNL1        0.1409
      8 C         143.1482  142.3159  168.5886 C.ar    1  UNL1        0.0665
      9 C         142.6021  142.9664  169.8251 C.ar    1  UNL1        0.1432
     10 F         143.4935  143.1910  171.0105 F       1  UNL1       -0.2041
     11 C         141.1648  143.3922  169.8761 C.ar    1  UNL1        0.0298
     12 C         140.2735  143.1676  168.6908 C.ar    1  UNL1        0.0054
     13 C         140.8195  142.5171  167.4544 C.ar    1  UNL1        0.0356
     14 C         142.9307  139.9479  166.0988 C.3     1  UNL1        0.2525
     15 O         142.8029  141.4408  166.1669 O.3     1  UNL1       -0.4714
     16 C         138.4492  144.3270  163.1992 C.3     1  UNL1        0.1181
     17 N         139.0143  144.3110  161.8099 N.am    1  UNL1       -0.2969
     18 C         140.4262  144.7570  161.5692 C.2     1  UNL1        0.2461
     19 O         141.2728  145.2190  162.7180 O.2     1  UNL1       -0.2701
     20 H         138.4586  144.0078  161.0559 H       1  UNL1        0.1501
     21 C         140.9913  144.7410  160.1799 C.ar    1  UNL1        0.0534
     22 C         140.3955  145.6167  159.1177 C.ar    1  UNL1        0.0045
     23 C         140.9606  145.6007  157.7284 C.ar    1  UNL1        0.0001
     24 C         142.1215  144.7089  157.4011 C.ar    1  UNL1        0.0000
     25 C         142.7173  143.8331  158.4632 C.ar    1  UNL1        0.0001
     26 C         142.1521  143.8492  159.8527 C.ar    1  UNL1        0.0045
@<TRIPOS>BOND
     1    14    15    1
     2    15     7    1
     3     7     8   ar
     4     8     9   ar
     5     9    10    1
     6     9    11   ar
     7    11    12   ar
     8    12    13   ar
     9    13     1    1
    10     1     2   ar
    11     2     3   ar
    12     3     4   ar
    13     4     5   ar
    14     5    16    1
    15    16    17    1
    16    17    18   am
    17    18    19    2
    18    18    21    1
    19    21    22   ar
    20    22    23   ar
    21    23    24   ar
    22    24    25   ar
    23    25    26   ar
    24     5     6   ar
    25    13     7   ar
    26     6     1   ar
    27    26    21   ar
    28    17    20    1
@<TRIPOS>MOLECULE
*****
 26 28 0 0 0
SMALL
GASTEIGER

@<TRIPOS>ATOM
      1 C         143.4772  142.4681  162.1964 C.ar    1  UNL1        0.0218
      2 C         144.9691  142.5432  162.0599 C.ar    1  UNL1        0.0989
      3 N         145.8449  141.6730  162.9117 N.ar    1  UNL1       -0.2426
      4 C         145.2289  140.7275  163.8999 C.ar    1  UNL1        0.0962
      5 C         143.7370  140.6523  164.0364 C.ar    1  UNL1        0.0166
      6 C         142.8612  141.5227  163.1846 C.ar    1  UNL1        0.0006
      7 C         141.8097  144.4477  161.9712 C.ar    1  UNL1        0.1409
      8 C         140.9339  145.3180  161.1194 C.ar    1  UNL1        0.0665
      9 C         140.8498  145.0790  159.6410 C.ar    1  UNL1        0.1432
     10 F         139.9740  145.9493  158.7892 F       1  UNL1       -0.2041
     11 C         141.6415  143.9697  159.0143 C.ar    1  UNL1        0.0298
     12 C         142.5173  143.0994  159.8661 C.ar    1  UNL1        0.0054
     13 C         142.6014  143.3384  161.3446 C.ar    1  UNL1        0.0356
     14 C         140.7306  144.3432  164.3323 C.3     1  UNL1        0.2525
     15 O         141.8938  144.6867  163.4497 O.3     1  UNL1       -0.4714
     16 C         143.1209  139.7069  165.0246 C.3     1  UNL1        0.1181
     17 N         142.5980  140.2242  166.3319 N.am    1  UNL1       -0.2969
     18 C         141.1717  140.6751  166.4435 C.2     1  UNL1        0.2461
     19 O         140.2683  140.6086  165.2479 O.2     1  UNL1       -0.2701
     20 H         143.1909  140.2679  167.1166 H       1  UNL1        0.1501
     21 C         140.6488  141.1924  167.7508 C.ar    1  UNL1        0.0534
     22 C         140.9241  142.6087  168.1610 C.ar    1  UNL1        0.0045
     23 C         140.4012  143.1260  169.4683 C.ar    1  UNL1        0.0001
     24 C         139.6029  142.2270  170.3653 C.ar    1  UNL1        0.0000
     25 C         139.3276  140.8107  169.9550 C.ar    1  UNL1        0.0001
     26 C         139.8505  140.2934  168.6477 C.ar    1  UNL1        0.0045
@<TRIPOS>BOND
     1    14    15    1
     2    15     7    1
     3     7     8   ar
     4     8     9   ar
     5     9    10    1
     6     9    11   ar
     7    11    12   ar
     8    12    13   ar
     9    13     1    1
    10     1     2   ar
    11     2     3   ar
    12     3     4   ar
    13     4     5   ar
    14     5    16    1
    15    16    17    1
    16    17    18   am
    17    18    19    2
    18    18    21    1
    19    21    22   ar
    20    22    23   ar
    21    23    24   ar
    22    24    25   ar
    23    25    26   ar
    24     5     6   ar
    25    13     7   ar
    26     6     1   ar
    27    26    21   ar
    28    17    20    1
@<TRIPOS>MOLECULE
*****
 26 28 0 0 0
SMALL
GASTEIGER

@<TRIPOS>ATOM
      1 C         140.8924  143.8165  160.5285 C.ar    1  UNL1        0.0218
      2 C         140.7687  144.6398  159.2808 C.ar    1  UNL1        0.0989
      3 N         139.8665  144.1885  158.1708 N.ar    1  UNL1       -0.2426
      4 C         139.0879  142.9138  158.3084 C.ar    1  UNL1        0.0962
      5 C         139.2116  142.0904  159.5561 C.ar    1  UNL1        0.0166
      6 C         140.1138  142.5418  160.6662 C.ar    1  UNL1        0.0006
      7 C         141.2565  145.1375  162.7359 C.ar    1  UNL1        0.1409
      8 C         142.1587  145.5888  163.8459 C.ar    1  UNL1        0.0665
      9 C         143.5992  145.1706  163.8586 C.ar    1  UNL1        0.1432
     10 F         144.5015  145.6220  164.9687 F       1  UNL1       -0.2041
     11 C         144.1374  144.3010  162.7613 C.ar    1  UNL1        0.0298
     12 C         143.2351  143.8497  161.6513 C.ar    1  UNL1        0.0054
     13 C         141.7947  144.2679  161.6386 C.ar    1  UNL1        0.0356
     14 C         138.7953  144.7528  163.4738 C.3     1  UNL1        0.2525
     15 O         139.8160  145.5557  162.7232 O.3     1  UNL1       -0.4714
     16 C         138.4330  140.8157  159.6938 C.3     1  UNL1        0.1181
     17 N         138.6305  139.9426  160.8974 N.am    1  UNL1       -0.2969
     18 C         138.0331  140.3364  162.2158 C.2     1  UNL1        0.2461
     19 O         137.2384  141.6034  162.3306 O.2     1  UNL1       -0.2701
     20 H         139.1521  139.1111  160.8220 H       1  UNL1        0.1501
     21 C         138.2306  139.4633  163.4194 C.ar    1  UNL1        0.0534
     22 C         138.6791  138.0421  163.2495 C.ar    1  UNL1        0.0045
     23 C         138.8766  137.1689  164.4530 C.ar    1  UNL1        0.0001
     24 C         138.6256  137.7171  165.8266 C.ar    1  UNL1        0.0000
     25 C         138.1771  139.1383  165.9965 C.ar    1  UNL1        0.0001
     26 C         137.9796  140.0115  164.7928 C.ar    1  UNL1        0.0045
@<TRIPOS>BOND
     1    14    15    1
     2    15     7    1
     3     7     8   ar
     4     8     9   ar
     5     9    10    1
     6     9    11   ar
     7    11    12   ar
     8    12    13   ar
     9    13     1    1
    10     1     2   ar
    11     2     3   ar
    12     3     4   ar
    13     4     5   ar
    14     5    16    1
    15    16    17    1
    16    17    18   am
    17    18    19    2
    18    18    21    1
    19    21    22   ar
    20    22    23   ar
    21    23    24   ar
    22    24    25   ar
    23    25    26   ar
    24     5     6   ar
    25    13     7   ar
    26     6     1   ar
    27    26    21   ar
    28    17    20    1
@<TRIPOS>MOLECULE
*****
 26 28 0 0 0
SMALL
GASTEIGER

@<TRIPOS>ATOM
      1 C         142.7982  139.8235  166.3386 C.ar    1  UNL1        0.0218
      2 C         143.5884  138.5491  166.2971 C.ar    1  UNL1        0.0989
      3 N         144.7455  138.4145  165.3522 N.ar    1  UNL1       -0.2426
      4 C         145.1126  139.5543  164.4487 C.ar    1  UNL1        0.0962
      5 C         144.3225  140.8287  164.4902 C.ar    1  UNL1        0.0166
      6 C         143.1653  140.9632  165.4352 C.ar    1  UNL1        0.0006
      7 C         140.2447  139.6983  166.8011 C.ar    1  UNL1        0.1409
      8 C         139.0876  139.8329  167.7460 C.ar    1  UNL1        0.0665
      9 C         139.3268  140.2271  169.1734 C.ar    1  UNL1        0.1432
     10 F         138.1696  140.3617  170.1183 F       1  UNL1       -0.2041
     11 C         140.7231  140.4868  169.6558 C.ar    1  UNL1        0.0298
     12 C         141.8802  140.3523  168.7109 C.ar    1  UNL1        0.0054
     13 C         141.6410  139.9580  167.2835 C.ar    1  UNL1        0.0356
     14 C         139.3344  138.0002  165.0582 C.3     1  UNL1        0.2525
     15 O         140.0055  139.3040  165.3737 O.3     1  UNL1       -0.4714
     16 C         144.6895  141.9684  163.5868 C.3     1  UNL1        0.1181
     17 N         143.6453  142.6007  162.7151 N.am    1  UNL1       -0.2969
     18 C         143.0562  143.9275  163.0925 C.2     1  UNL1        0.2461
     19 O         143.5113  144.6221  164.3417 O.2     1  UNL1       -0.2701
     20 H         143.3467  142.1448  161.8952 H       1  UNL1        0.1501
     21 C         142.0120  144.5598  162.2208 C.ar    1  UNL1        0.0534
     22 C         141.9929  144.2766  160.7478 C.ar    1  UNL1        0.0045
     23 C         140.9487  144.9089  159.8761 C.ar    1  UNL1        0.0001
     24 C         139.9237  145.8243  160.4773 C.ar    1  UNL1        0.0000
     25 C         139.9428  146.1074  161.9502 C.ar    1  UNL1        0.0001
     26 C         140.9871  145.4751  162.8219 C.ar    1  UNL1        0.0045
@<TRIPOS>BOND
     1    14    15    1
     2    15     7    1
     3     7     8   ar
     4     8     9   ar
     5     9    10    1
     6     9    11   ar
     7    11    12   ar
     8    12    13   ar
     9    13     1    1
    10     1     2   ar
    11     2     3   ar
    12     3     4   ar
    13     4     5   ar
    14     5    16    1
    15    16    17    1
    16    17    18   am
    17    18    19    2
    18    18    21    1
    19    21    22   ar
    20    22    23   ar
    21    23    24   ar
    22    24    25   ar
    23    25    26   ar
    24     5     6   ar
    25    13     7   ar
    26     6     1   ar
    27    26    21   ar
    28    17    20    1
