@<TRIPOS>MOLECULE
*****
 43 48 0 0 0
SMALL
GASTEIGER

@<TRIPOS>ATOM
      1 N         141.9828  141.0082  168.0096 N.ar    1  UNL1       -0.2926
      2 C         142.3129  141.5568  169.3661 C.ar    1  UNL1        0.2611
      3 O         143.6291  142.2372  169.6000 O.2     1  UNL1       -0.2670
      4 C         141.3269  141.4249  170.4887 C.ar    1  UNL1        0.0623
      5 C         140.0107  140.7445  170.2549 C.ar    1  UNL1        0.0255
      6 C         139.6806  140.1959  168.8983 C.ar    1  UNL1        0.0975
      7 N         138.3644  139.5155  168.6645 N.ar    1  UNL1       -0.2392
      8 C         138.0343  138.9670  167.3080 C.ar    1  UNL1        0.1363
      9 C         139.0204  139.0988  166.1854 C.ar    1  UNL1        0.1658
     10 C         140.3365  139.7792  166.4192 C.ar    1  UNL1        0.0579
     11 C         140.6666  140.3278  167.7757 C.ar    1  UNL1        0.0832
     12 C         142.9689  141.1401  166.8870 C.3     1  UNL1        0.1264
     13 C         143.3806  142.5001  166.4062 C.3     1  UNL1        0.0970
     14 C         142.5778  143.7200  162.1498 C.3     1  UNL1        0.1147
     15 C         141.7189  142.6803  162.8067 C.3     1  UNL1        0.0298
     16 C         141.9865  142.2737  164.2255 C.3     1  UNL1        0.0728
     17 N         143.1130  142.9067  164.9874 N.3     1  UNL1       -0.2710
     18 C         143.9717  143.9464  164.3305 C.3     1  UNL1        0.0728
     19 C         143.7041  144.3530  162.9117 C.3     1  UNL1        0.0298
     20 C         140.9311  145.9585  156.3291 C.2     1  UNL1        0.0547
     21 C         141.9386  144.9551  155.8515 C.2     1  UNL1        0.0103
     22 C         142.6741  144.1012  156.8413 C.2     1  UNL1        0.0505
     23 C         142.4021  144.2508  158.3088 C.2     1  UNL1        0.2318
     24 N         142.9679  143.5540  159.5106 N.2     1  UNL1       -0.0351
     25 C         142.3102  144.1267  160.7310 C.2     1  UNL1        0.3507
     26 N         141.3377  145.1776  160.2835 N.2     1  UNL1       -0.0389
     27 C         141.3946  145.2542  158.7865 C.2     1  UNL1        0.2181
     28 C         140.6591  146.1081  157.7966 C.3     1  UNL1        0.1144
     29 N         139.4601  147.6662  154.3492 N.1     1  UNL1       -0.1911
     30 C         140.1956  146.8124  155.3391 C.1     1  UNL1        0.0965
     31 O         138.6902  138.5502  164.8288 O.3     1  UNL1       -0.4519
     32 C         138.6616  139.4617  163.6379 C.ar    1  UNL1        0.1455
     33 C         137.7674  140.6660  163.6364 C.ar    1  UNL1        0.0389
     34 C         137.7388  141.5775  162.4454 C.ar    1  UNL1        0.0230
     35 C         138.6043  141.2846  161.2559 C.ar    1  UNL1        0.1219
     36 C         139.4985  140.0802  161.2573 C.ar    1  UNL1        0.0230
     37 C         139.5272  139.1688  162.4483 C.ar    1  UNL1        0.0389
     38 S         138.5757  142.1960  160.0649 S.O2    1  UNL1        0.0572
     39 N         138.5470  143.1075  158.8739 N.3     1  UNL1       -0.2035
     40 O         138.5106  143.3853  160.9767 O.2     1  UNL1       -0.1532
     41 O         138.6407  141.0067  159.1532 O.2     1  UNL1       -0.1532
     42 H         138.4988  144.0766  159.1885 H       1  UNL1        0.1442
     43 H         137.7295  142.8945  158.3024 H       1  UNL1        0.1442
@<TRIPOS>BOND
     1    29    30    3
     2    30    20    1
     3    20    21    2
     4    21    22    1
     5    22    23    2
     6    23    24    1
     7    24    25    2
     8    25    14    1
     9    14    15    1
    10    15    16    1
    11    16    17    1
    12    17    13    1
    13    13    12    1
    14    12     1    1
    15     1     2   ar
    16     2     3    2
    17     2     4   ar
    18     4     5   ar
    19     5     6   ar
    20     6     7   ar
    21     7     8   ar
    22     8     9   ar
    23     9    31    1
    24    31    32    1
    25    32    33   ar
    26    33    34   ar
    27    34    35   ar
    28    35    38    1
    29    38    39    1
    30    38    40    2
    31    38    41    2
    32    35    36   ar
    33    36    37   ar
    34     9    10   ar
    35    10    11   ar
    36    17    18    1
    37    18    19    1
    38    25    26    1
    39    26    27    2
    40    27    28    1
    41    28    20    1
    42    27    23    1
    43    19    14    1
    44    11     1   ar
    45    11     6   ar
    46    37    32   ar
    47    39    42    1
    48    39    43    1
@<TRIPOS>MOLECULE
*****
 43 48 0 0 0
SMALL
GASTEIGER

@<TRIPOS>ATOM
      1 N         141.8041  142.0782  157.5519 N.ar    1  UNL1       -0.2926
      2 C         142.9911  142.6579  156.8414 C.ar    1  UNL1        0.2611
      3 O         142.8621  143.9566  156.1019 O.2     1  UNL1       -0.2670
      4 C         144.3072  141.9389  156.8702 C.ar    1  UNL1        0.0623
      5 C         144.4363  140.6402  157.6096 C.ar    1  UNL1        0.0255
      6 C         143.2492  140.0605  158.3202 C.ar    1  UNL1        0.0975
      7 N         143.3783  138.7618  159.0596 N.ar    1  UNL1       -0.2392
      8 C         142.1913  138.1821  159.7701 C.ar    1  UNL1        0.1363
      9 C         140.8751  138.9012  159.7412 C.ar    1  UNL1        0.1658
     10 C         140.7461  140.1998  159.0018 C.ar    1  UNL1        0.0579
     11 C         141.9331  140.7795  158.2913 C.ar    1  UNL1        0.0832
     12 C         140.4879  142.7972  157.5230 C.3     1  UNL1        0.1264
     13 C         140.2090  143.8910  158.5109 C.3     1  UNL1        0.0970
     14 C         141.0011  143.2233  162.8901 C.3     1  UNL1        0.1147
     15 C         139.6210  143.0214  162.3382 C.3     1  UNL1        0.0298
     16 C         139.3569  143.2440  160.8785 C.3     1  UNL1        0.0728
     17 N         140.4731  143.6684  159.9706 N.3     1  UNL1       -0.2710
     18 C         141.8531  143.8702  160.5225 C.3     1  UNL1        0.0728
     19 C         142.1172  143.6477  161.9822 C.3     1  UNL1        0.0298
     20 C         141.4009  142.3770  169.2718 C.2     1  UNL1        0.0547
     21 C         142.8567  142.1683  168.9767 C.2     1  UNL1        0.0103
     22 C         143.3560  142.2568  167.5650 C.2     1  UNL1        0.0505
     23 C         142.3994  142.5538  166.4485 C.2     1  UNL1        0.2318
     24 N         142.5981  142.7011  164.9690 N.2     1  UNL1       -0.0351
     25 C         141.2652  143.0007  164.3498 C.2     1  UNL1        0.3507
     26 N         140.2426  143.0386  165.4466 N.2     1  UNL1       -0.0389
     27 C         140.9436  142.7625  166.7436 C.2     1  UNL1        0.2181
     28 C         140.4444  142.6740  168.1553 C.3     1  UNL1        0.1144
     29 N         140.4025  142.2000  172.0953 N.1     1  UNL1       -0.1911
     30 C         140.9017  142.2885  170.6836 C.1     1  UNL1        0.0965
     31 O         139.6881  138.3214  160.4518 O.3     1  UNL1       -0.4519
     32 C         139.5227  138.5288  161.9281 C.ar    1  UNL1        0.1455
     33 C         138.6223  139.6154  162.4366 C.ar    1  UNL1        0.0389
     34 C         138.4570  139.8228  163.9131 C.ar    1  UNL1        0.0230
     35 C         139.1921  138.9436  164.8808 C.ar    1  UNL1        0.1219
     36 C         140.0926  137.8571  164.3723 C.ar    1  UNL1        0.0230
     37 C         140.2579  137.6497  162.8960 C.ar    1  UNL1        0.0389
     38 S         139.0268  139.1511  166.3572 S.O2    1  UNL1        0.0572
     39 N         138.8615  139.3585  167.8336 N.3     1  UNL1       -0.2035
     40 O         137.5727  138.8008  166.2435 O.2     1  UNL1       -0.1532
     41 O         140.4809  139.5013  166.4708 O.2     1  UNL1       -0.1532
     42 H         137.8918  139.1810  168.0954 H       1  UNL1        0.1442
     43 H         139.1075  140.3194  168.0716 H       1  UNL1        0.1442
@<TRIPOS>BOND
     1    29    30    3
     2    30    20    1
     3    20    21    2
     4    21    22    1
     5    22    23    2
     6    23    24    1
     7    24    25    2
     8    25    14    1
     9    14    15    1
    10    15    16    1
    11    16    17    1
    12    17    13    1
    13    13    12    1
    14    12     1    1
    15     1     2   ar
    16     2     3    2
    17     2     4   ar
    18     4     5   ar
    19     5     6   ar
    20     6     7   ar
    21     7     8   ar
    22     8     9   ar
    23     9    31    1
    24    31    32    1
    25    32    33   ar
    26    33    34   ar
    27    34    35   ar
    28    35    38    1
    29    38    39    1
    30    38    40    2
    31    38    41    2
    32    35    36   ar
    33    36    37   ar
    34     9    10   ar
    35    10    11   ar
    36    17    18    1
    37    18    19    1
    38    25    26    1
    39    26    27    2
    40    27    28    1
    41    28    20    1
    42    27    23    1
    43    19    14    1
    44    11     1   ar
    45    11     6   ar
    46    37    32   ar
    47    39    42    1
    48    39    43    1
@<TRIPOS>MOLECULE
*****
 43 48 0 0 0
SMALL
GASTEIGER

@<TRIPOS>ATOM
      1 N         142.5227  140.1105  157.5979 N.ar    1  UNL1       -0.2926
      2 C         143.7700  140.3278  156.7936 C.ar    1  UNL1        0.2611
      3 O         144.5005  139.1544  156.2108 O.2     1  UNL1       -0.2670
      4 C         144.2868  141.7184  156.5721 C.ar    1  UNL1        0.0623
      5 C         143.5564  142.8917  157.1548 C.ar    1  UNL1        0.0255
      6 C         142.3090  142.6745  157.9592 C.ar    1  UNL1        0.0975
      7 N         141.5785  143.8478  158.5420 N.ar    1  UNL1       -0.2392
      8 C         140.3312  143.6305  159.3463 C.ar    1  UNL1        0.1363
      9 C         139.8144  142.2399  159.5678 C.ar    1  UNL1        0.1658
     10 C         140.5448  141.0666  158.9850 C.ar    1  UNL1        0.0579
     11 C         141.7921  141.2839  158.1807 C.ar    1  UNL1        0.0832
     12 C         142.0058  138.7199  157.8194 C.3     1  UNL1        0.1264
     13 C         142.6348  137.8431  158.8615 C.3     1  UNL1        0.0970
     14 C         142.7173  139.1646  163.1623 C.3     1  UNL1        0.1147
     15 C         143.9812  139.1611  162.3544 C.3     1  UNL1        0.0298
     16 C         143.9537  138.7206  160.9208 C.3     1  UNL1        0.0728
     17 N         142.6623  138.2836  160.2951 N.3     1  UNL1       -0.2710
     18 C         141.3985  138.2872  161.1030 C.3     1  UNL1        0.0728
     19 C         141.4260  138.7277  162.5366 C.3     1  UNL1        0.0298
     20 C         142.9427  141.7547  169.0651 C.2     1  UNL1        0.0547
     21 C         142.7268  140.3370  169.5049 C.2     1  UNL1        0.0103
     22 C         142.5951  139.2466  168.4833 C.2     1  UNL1        0.0505
     23 C         142.6792  139.5741  167.0219 C.2     1  UNL1        0.2318
     24 N         142.5863  138.7170  165.7943 N.2     1  UNL1       -0.0351
     25 C         142.7448  139.6051  164.5959 C.2     1  UNL1        0.3507
     26 N         142.9356  141.0111  165.0828 N.2     1  UNL1       -0.0389
     27 C         142.8951  140.9918  166.5822 C.2     1  UNL1        0.2181
     28 C         143.0268  142.0821  167.6038 C.3     1  UNL1        0.1144
     29 N         143.2062  143.9354  171.1085 N.1     1  UNL1       -0.1911
     30 C         143.0744  142.8451  170.0869 C.1     1  UNL1        0.0965
     31 O         138.5670  142.0227  160.3722 O.3     1  UNL1       -0.4519
     32 C         138.6621  141.5238  161.7836 C.ar    1  UNL1        0.1455
     33 C         139.4581  142.2903  162.7979 C.ar    1  UNL1        0.0389
     34 C         139.5531  141.7914  164.2094 C.ar    1  UNL1        0.0230
     35 C         138.8522  140.5261  164.6064 C.ar    1  UNL1        0.1219
     36 C         138.0562  139.7597  163.5921 C.ar    1  UNL1        0.0230
     37 C         137.9611  140.2585  162.1807 C.ar    1  UNL1        0.0389
     38 S         138.9473  140.0273  166.0178 S.O2    1  UNL1        0.0572
     39 N         139.0423  139.5284  167.4293 N.3     1  UNL1       -0.2035
     40 O         139.5822  141.3214  166.4324 O.2     1  UNL1       -0.1532
     41 O         138.3124  138.7331  165.6032 O.2     1  UNL1       -0.1532
     42 H         139.4709  140.2450  168.0150 H       1  UNL1        0.1442
     43 H         139.6131  138.6833  167.4535 H       1  UNL1        0.1442
@<TRIPOS>BOND
     1    29    30    3
     2    30    20    1
     3    20    21    2
     4    21    22    1
     5    22    23    2
     6    23    24    1
     7    24    25    2
     8    25    14    1
     9    14    15    1
    10    15    16    1
    11    16    17    1
    12    17    13    1
    13    13    12    1
    14    12     1    1
    15     1     2   ar
    16     2     3    2
    17     2     4   ar
    18     4     5   ar
    19     5     6   ar
    20     6     7   ar
    21     7     8   ar
    22     8     9   ar
    23     9    31    1
    24    31    32    1
    25    32    33   ar
    26    33    34   ar
    27    34    35   ar
    28    35    38    1
    29    38    39    1
    30    38    40    2
    31    38    41    2
    32    35    36   ar
    33    36    37   ar
    34     9    10   ar
    35    10    11   ar
    36    17    18    1
    37    18    19    1
    38    25    26    1
    39    26    27    2
    40    27    28    1
    41    28    20    1
    42    27    23    1
    43    19    14    1
    44    11     1   ar
    45    11     6   ar
    46    37    32   ar
    47    39    42    1
    48    39    43    1
@<TRIPOS>MOLECULE
*****
 43 48 0 0 0
SMALL
GASTEIGER

@<TRIPOS>ATOM
      1 N         139.5743  144.4919  156.7104 N.ar    1  UNL1       -0.2926
      2 C         139.1951  145.6727  155.8667 C.ar    1  UNL1        0.2611
      3 O         140.0592  146.8989  155.8608 O.2     1  UNL1       -0.2670
      4 C         137.9518  145.6275  155.0288 C.ar    1  UNL1        0.0623
      5 C         137.0877  144.4014  155.0346 C.ar    1  UNL1        0.0255
      6 C         137.4669  143.2205  155.8783 C.ar    1  UNL1        0.0975
      7 N         136.6028  141.9945  155.8841 N.ar    1  UNL1       -0.2392
      8 C         136.9820  140.8137  156.7278 C.ar    1  UNL1        0.1363
      9 C         138.2254  140.8590  157.5657 C.ar    1  UNL1        0.1658
     10 C         139.0895  142.0850  157.5599 C.ar    1  UNL1        0.0579
     11 C         138.7102  143.2658  156.7162 C.ar    1  UNL1        0.0832
     12 C         140.8177  144.5372  157.5483 C.3     1  UNL1        0.1264
     13 C         140.8495  145.3648  158.7990 C.3     1  UNL1        0.0970
     14 C         141.0390  143.3564  162.8215 C.3     1  UNL1        0.1147
     15 C         141.3879  142.5871  161.5819 C.3     1  UNL1        0.0298
     16 C         141.3247  143.2565  160.2411 C.3     1  UNL1        0.0728
     17 N         140.9127  144.6953  160.1398 N.3     1  UNL1       -0.2710
     18 C         140.5638  145.4646  161.3793 C.3     1  UNL1        0.0728
     19 C         140.6270  144.7951  162.7202 C.3     1  UNL1        0.0298
     20 C         141.0254  141.1131  168.8689 C.2     1  UNL1        0.0547
     21 C         141.5920  139.8814  168.2272 C.2     1  UNL1        0.0103
     22 C         141.8207  139.8453  166.7452 C.2     1  UNL1        0.0505
     23 C         141.4827  141.0409  165.9048 C.2     1  UNL1        0.2318
     24 N         141.5977  141.2970  164.4313 N.2     1  UNL1       -0.0351
     25 C         141.1021  142.6870  164.1623 C.2     1  UNL1        0.3507
     26 N         140.6808  143.2900  165.4696 N.2     1  UNL1       -0.0389
     27 C         140.9160  142.2726  166.5465 C.2     1  UNL1        0.2181
     28 C         140.6874  142.3088  168.0285 C.3     1  UNL1        0.1144
     29 N         140.5681  141.1853  171.8329 N.1     1  UNL1       -0.1911
     30 C         140.7968  141.1492  170.3509 C.1     1  UNL1        0.0965
     31 O         138.6046  139.6781  158.4094 O.3     1  UNL1       -0.4519
     32 C         138.4985  139.7588  159.9034 C.ar    1  UNL1        0.1455
     33 C         138.8438  138.5663  160.7454 C.ar    1  UNL1        0.0389
     34 C         138.7377  138.6471  162.2395 C.ar    1  UNL1        0.0230
     35 C         138.2861  139.9202  162.8916 C.ar    1  UNL1        0.1219
     36 C         137.9408  141.1126  162.0497 C.ar    1  UNL1        0.0230
     37 C         138.0469  141.0319  160.5556 C.ar    1  UNL1        0.0389
     38 S         138.1800  140.0008  164.3856 S.O2    1  UNL1        0.0572
     39 N         138.0738  140.0816  165.8797 N.3     1  UNL1       -0.2035
     40 O         138.5470  138.5502  164.4900 O.2     1  UNL1       -0.1532
     41 O         137.8130  141.4514  164.2812 O.2     1  UNL1       -0.1532
     42 H         138.2851  139.1698  166.2854 H       1  UNL1        0.1442
     43 H         137.1268  140.3578  166.1389 H       1  UNL1        0.1442
@<TRIPOS>BOND
     1    29    30    3
     2    30    20    1
     3    20    21    2
     4    21    22    1
     5    22    23    2
     6    23    24    1
     7    24    25    2
     8    25    14    1
     9    14    15    1
    10    15    16    1
    11    16    17    1
    12    17    13    1
    13    13    12    1
    14    12     1    1
    15     1     2   ar
    16     2     3    2
    17     2     4   ar
    18     4     5   ar
    19     5     6   ar
    20     6     7   ar
    21     7     8   ar
    22     8     9   ar
    23     9    31    1
    24    31    32    1
    25    32    33   ar
    26    33    34   ar
    27    34    35   ar
    28    35    38    1
    29    38    39    1
    30    38    40    2
    31    38    41    2
    32    35    36   ar
    33    36    37   ar
    34     9    10   ar
    35    10    11   ar
    36    17    18    1
    37    18    19    1
    38    25    26    1
    39    26    27    2
    40    27    28    1
    41    28    20    1
    42    27    23    1
    43    19    14    1
    44    11     1   ar
    45    11     6   ar
    46    37    32   ar
    47    39    42    1
    48    39    43    1
@<TRIPOS>MOLECULE
*****
 43 48 0 0 0
SMALL
GASTEIGER

@<TRIPOS>ATOM
      1 N         139.8856  140.9761  161.6415 N.ar    1  UNL1       -0.2926
      2 C         138.6740  140.9840  160.7573 C.ar    1  UNL1        0.2611
      3 O         138.5108  142.0534  159.7181 O.2     1  UNL1       -0.2670
      4 C         137.6256  139.9224  160.9120 C.ar    1  UNL1        0.0623
      5 C         137.7888  138.8530  161.9511 C.ar    1  UNL1        0.0255
      6 C         139.0004  138.8451  162.8355 C.ar    1  UNL1        0.0975
      7 N         139.1636  137.7757  163.8745 N.ar    1  UNL1       -0.2392
      8 C         140.3751  137.7679  164.7588 C.ar    1  UNL1        0.1363
      9 C         141.4235  138.8295  164.6040 C.ar    1  UNL1        0.1658
     10 C         141.2604  139.8989  163.5650 C.ar    1  UNL1        0.0579
     11 C         140.0488  139.9067  162.6807 C.ar    1  UNL1        0.0832
     12 C         140.9339  142.0377  161.4868 C.3     1  UNL1        0.1264
     13 C         142.0141  141.8807  160.4578 C.3     1  UNL1        0.0970
     14 C         142.2465  138.1213  157.9954 C.3     1  UNL1        0.1147
     15 C         141.5226  139.3227  157.4636 C.3     1  UNL1        0.0298
     16 C         141.4451  140.5758  158.2844 C.3     1  UNL1        0.0728
     17 N         142.0916  140.6276  159.6370 N.3     1  UNL1       -0.2710
     18 C         142.8154  139.4263  160.1687 C.3     1  UNL1        0.0728
     19 C         142.8929  138.1732  159.3480 C.3     1  UNL1        0.0298
     20 C         143.1439  132.5251  154.9164 C.2     1  UNL1        0.0547
     21 C         142.0108  133.0137  154.0636 C.2     1  UNL1        0.0103
     22 C         141.3772  134.3432  154.3479 C.2     1  UNL1        0.0505
     23 C         141.8766  135.1841  155.4852 C.2     1  UNL1        0.2318
     24 N         141.4528  136.5269  156.0022 N.2     1  UNL1       -0.0351
     25 C         142.3240  136.8682  157.1746 C.2     1  UNL1        0.3507
     26 N         143.2863  135.7363  157.3822 N.2     1  UNL1       -0.0389
     27 C         143.0098  134.6955  156.3380 C.2     1  UNL1        0.2181
     28 C         143.6434  133.3661  156.0536 C.3     1  UNL1        0.1144
     29 N         144.4112  129.8661  154.3476 N.1     1  UNL1       -0.1911
     30 C         143.7776  131.1956  154.6320 C.1     1  UNL1        0.0965
     31 O         142.6351  138.8216  165.4884 O.3     1  UNL1       -0.4519
     32 C         142.7449  139.8014  166.6188 C.ar    1  UNL1        0.1455
     33 C         142.9692  141.2564  166.3311 C.ar    1  UNL1        0.0389
     34 C         143.0790  142.2362  167.4617 C.ar    1  UNL1        0.0230
     35 C         142.9646  141.7610  168.8798 C.ar    1  UNL1        0.1219
     36 C         142.7403  140.3060  169.1674 C.ar    1  UNL1        0.0230
     37 C         142.6305  139.3262  168.0370 C.ar    1  UNL1        0.0389
     38 S         143.0744  142.7408  170.0102 S.O2    1  UNL1        0.0572
     39 N         143.1842  143.7206  171.1407 N.3     1  UNL1       -0.2035
     40 O         141.6153  142.5607  170.3080 O.2     1  UNL1       -0.1532
     41 O         144.5334  142.9209  169.7124 O.2     1  UNL1       -0.1532
     42 H         142.2737  143.8273  171.5879 H       1  UNL1        0.1442
     43 H         143.4935  144.6231  170.7796 H       1  UNL1        0.1442
@<TRIPOS>BOND
     1    29    30    3
     2    30    20    1
     3    20    21    2
     4    21    22    1
     5    22    23    2
     6    23    24    1
     7    24    25    2
     8    25    14    1
     9    14    15    1
    10    15    16    1
    11    16    17    1
    12    17    13    1
    13    13    12    1
    14    12     1    1
    15     1     2   ar
    16     2     3    2
    17     2     4   ar
    18     4     5   ar
    19     5     6   ar
    20     6     7   ar
    21     7     8   ar
    22     8     9   ar
    23     9    31    1
    24    31    32    1
    25    32    33   ar
    26    33    34   ar
    27    34    35   ar
    28    35    38    1
    29    38    39    1
    30    38    40    2
    31    38    41    2
    32    35    36   ar
    33    36    37   ar
    34     9    10   ar
    35    10    11   ar
    36    17    18    1
    37    18    19    1
    38    25    26    1
    39    26    27    2
    40    27    28    1
    41    28    20    1
    42    27    23    1
    43    19    14    1
    44    11     1   ar
    45    11     6   ar
    46    37    32   ar
    47    39    42    1
    48    39    43    1
@<TRIPOS>MOLECULE
*****
 43 48 0 0 0
SMALL
GASTEIGER

@<TRIPOS>ATOM
      1 N         141.1793  139.0064  156.6056 N.ar    1  UNL1       -0.2926
      2 C         141.2322  138.0732  155.4325 C.ar    1  UNL1        0.2611
      3 O         142.5012  137.3390  155.1148 O.2     1  UNL1       -0.2670
      4 C         140.0163  137.8740  154.5770 C.ar    1  UNL1        0.0623
      5 C         138.7474  138.6081  154.8946 C.ar    1  UNL1        0.0255
      6 C         138.6944  139.5414  156.0678 C.ar    1  UNL1        0.0975
      7 N         137.4255  140.2755  156.3854 N.ar    1  UNL1       -0.2392
      8 C         137.3725  141.2087  157.5585 C.ar    1  UNL1        0.1363
      9 C         138.5884  141.4079  158.4140 C.ar    1  UNL1        0.1658
     10 C         139.8573  140.6738  158.0963 C.ar    1  UNL1        0.0579
     11 C         139.9103  139.7406  156.9232 C.ar    1  UNL1        0.0832
     12 C         142.3952  139.2056  157.4610 C.3     1  UNL1        0.1264
     13 C         142.7528  138.1889  158.5044 C.3     1  UNL1        0.0970
     14 C         142.7725  139.3406  162.8545 C.3     1  UNL1        0.1147
     15 C         141.4965  138.8984  162.2015 C.3     1  UNL1        0.0298
     16 C         141.4899  138.5145  160.7515 C.3     1  UNL1        0.0728
     17 N         142.7594  138.5728  159.9545 N.3     1  UNL1       -0.2710
     18 C         144.0353  139.0149  160.6075 C.3     1  UNL1        0.0728
     19 C         144.0419  139.3988  162.0575 C.3     1  UNL1        0.0298
     20 C         142.8725  141.7017  168.8560 C.2     1  UNL1        0.0547
     21 C         142.7284  140.2585  169.2388 C.2     1  UNL1        0.0103
     22 C         142.6507  139.2045  168.1744 C.2     1  UNL1        0.0505
     23 C         142.7171  139.5936  166.7273 C.2     1  UNL1        0.2318
     24 N         142.6663  138.7826  165.4665 N.2     1  UNL1       -0.0351
     25 C         142.7790  139.7245  164.3045 C.2     1  UNL1        0.3507
     26 N         142.8995  141.1177  164.8472 N.2     1  UNL1       -0.0389
     27 C         142.8611  141.0368  166.3446 C.2     1  UNL1        0.2181
     28 C         142.9389  142.0908  167.4089 C.3     1  UNL1        0.1144
     29 N         143.0279  143.8098  170.9849 N.1     1  UNL1       -0.1911
     30 C         142.9502  142.7558  169.9205 C.1     1  UNL1        0.0965
     31 O         138.5354  142.3412  159.5871 O.3     1  UNL1       -0.4519
     32 C         138.6403  141.7994  160.9819 C.ar    1  UNL1        0.1455
     33 C         137.8453  140.5909  161.3788 C.ar    1  UNL1        0.0389
     34 C         137.9503  140.0491  162.7737 C.ar    1  UNL1        0.0230
     35 C         138.8502  140.7158  163.7715 C.ar    1  UNL1        0.1219
     36 C         139.6452  141.9242  163.3745 C.ar    1  UNL1        0.0230
     37 C         139.5403  142.4660  161.9798 C.ar    1  UNL1        0.0389
     38 S         138.9551  140.1739  165.1662 S.O2    1  UNL1        0.0572
     39 N         139.0600  139.6321  166.5610 N.3     1  UNL1       -0.2035
     40 O         139.4358  141.5102  165.6492 O.2     1  UNL1       -0.1532
     41 O         138.4744  138.8377  164.6833 O.2     1  UNL1       -0.1532
     42 H         139.3920  140.3659  167.1868 H       1  UNL1        0.1442
     43 H         139.7165  138.8515  166.5741 H       1  UNL1        0.1442
@<TRIPOS>BOND
     1    29    30    3
     2    30    20    1
     3    20    21    2
     4    21    22    1
     5    22    23    2
     6    23    24    1
     7    24    25    2
     8    25    14    1
     9    14    15    1
    10    15    16    1
    11    16    17    1
    12    17    13    1
    13    13    12    1
    14    12     1    1
    15     1     2   ar
    16     2     3    2
    17     2     4   ar
    18     4     5   ar
    19     5     6   ar
    20     6     7   ar
    21     7     8   ar
    22     8     9   ar
    23     9    31    1
    24    31    32    1
    25    32    33   ar
    26    33    34   ar
    27    34    35   ar
    28    35    38    1
    29    38    39    1
    30    38    40    2
    31    38    41    2
    32    35    36   ar
    33    36    37   ar
    34     9    10   ar
    35    10    11   ar
    36    17    18    1
    37    18    19    1
    38    25    26    1
    39    26    27    2
    40    27    28    1
    41    28    20    1
    42    27    23    1
    43    19    14    1
    44    11     1   ar
    45    11     6   ar
    46    37    32   ar
    47    39    42    1
    48    39    43    1
@<TRIPOS>MOLECULE
*****
 43 48 0 0 0
SMALL
GASTEIGER

@<TRIPOS>ATOM
      1 N         138.3987  141.9569  156.5907 N.ar    1  UNL1       -0.2926
      2 C         137.4280  141.6103  155.5009 C.ar    1  UNL1        0.2611
      3 O         136.8914  140.2138  155.3907 O.2     1  UNL1       -0.2670
      4 C         136.9939  142.6600  154.5214 C.ar    1  UNL1        0.0623
      5 C         137.5304  144.0564  154.6316 C.ar    1  UNL1        0.0255
      6 C         138.5012  144.4031  155.7214 C.ar    1  UNL1        0.0975
      7 N         139.0377  145.7994  155.8316 N.ar    1  UNL1       -0.2392
      8 C         140.0084  146.1460  156.9213 C.ar    1  UNL1        0.1363
      9 C         140.4426  145.0963  157.9008 C.ar    1  UNL1        0.1658
     10 C         139.9060  143.6999  157.7906 C.ar    1  UNL1        0.0579
     11 C         138.9353  143.3533  156.7009 C.ar    1  UNL1        0.0832
     12 C         138.8328  140.9071  157.5702 C.3     1  UNL1        0.1264
     13 C         137.9204  140.5033  158.6903 C.3     1  UNL1        0.0970
     14 C         139.4935  140.2674  162.8998 C.3     1  UNL1        0.1147
     15 C         139.8665  139.2135  161.8996 C.3     1  UNL1        0.0298
     16 C         139.3421  139.2921  160.4964 C.3     1  UNL1        0.0728
     17 N         138.4448  140.4246  160.0935 N.3     1  UNL1       -0.2710
     18 C         138.0719  141.4784  161.0936 C.3     1  UNL1        0.0728
     19 C         138.5963  141.3998  162.4968 C.3     1  UNL1        0.0298
     20 C         141.0961  140.2346  169.1475 C.2     1  UNL1        0.0547
     21 C         142.3699  139.6285  168.6375 C.2     1  UNL1        0.0103
     22 C         142.5527  139.3936  167.1674 C.2     1  UNL1        0.0505
     23 C         141.4617  139.7647  166.2072 C.2     1  UNL1        0.2318
     24 N         141.3566  139.6522  164.7151 N.2     1  UNL1       -0.0351
     25 C         140.0179  140.1888  164.3029 C.2     1  UNL1        0.3507
     26 N         139.2955  140.6329  165.5403 N.2     1  UNL1       -0.0389
     27 C         140.1879  140.3708  166.7172 C.2     1  UNL1        0.2181
     28 C         140.0051  140.6058  168.1873 C.3     1  UNL1        0.1144
     29 N         140.7305  140.7046  172.0878 N.1     1  UNL1       -0.1911
     30 C         140.9133  140.4696  170.6177 C.1     1  UNL1        0.0965
     31 O         141.4133  145.4429  158.9906 O.3     1  UNL1       -0.4519
     32 C         141.0935  145.1028  160.4161 C.ar    1  UNL1        0.1455
     33 C         141.8590  144.0212  161.1190 C.ar    1  UNL1        0.0389
     34 C         141.5392  143.6810  162.5445 C.ar    1  UNL1        0.0230
     35 C         140.4538  144.4225  163.2671 C.ar    1  UNL1        0.1219
     36 C         139.6882  145.5041  162.5642 C.ar    1  UNL1        0.0230
     37 C         140.0081  145.8442  161.1387 C.ar    1  UNL1        0.0389
     38 S         140.1339  144.0823  164.6925 S.O2    1  UNL1        0.0572
     39 N         139.8140  143.7421  166.1180 N.3     1  UNL1       -0.2035
     40 O         141.4512  143.3762  164.8196 O.2     1  UNL1       -0.1532
     41 O         138.8167  144.7884  164.5654 O.2     1  UNL1       -0.1532
     42 H         140.5861  143.2123  166.5226 H       1  UNL1        0.1442
     43 H         138.9627  143.1813  166.1509 H       1  UNL1        0.1442
@<TRIPOS>BOND
     1    29    30    3
     2    30    20    1
     3    20    21    2
     4    21    22    1
     5    22    23    2
     6    23    24    1
     7    24    25    2
     8    25    14    1
     9    14    15    1
    10    15    16    1
    11    16    17    1
    12    17    13    1
    13    13    12    1
    14    12     1    1
    15     1     2   ar
    16     2     3    2
    17     2     4   ar
    18     4     5   ar
    19     5     6   ar
    20     6     7   ar
    21     7     8   ar
    22     8     9   ar
    23     9    31    1
    24    31    32    1
    25    32    33   ar
    26    33    34   ar
    27    34    35   ar
    28    35    38    1
    29    38    39    1
    30    38    40    2
    31    38    41    2
    32    35    36   ar
    33    36    37   ar
    34     9    10   ar
    35    10    11   ar
    36    17    18    1
    37    18    19    1
    38    25    26    1
    39    26    27    2
    40    27    28    1
    41    28    20    1
    42    27    23    1
    43    19    14    1
    44    11     1   ar
    45    11     6   ar
    46    37    32   ar
    47    39    42    1
    48    39    43    1
@<TRIPOS>MOLECULE
*****
 43 48 0 0 0
SMALL
GASTEIGER

@<TRIPOS>ATOM
      1 N         144.0401  141.1509  156.9298 N.ar    1  UNL1       -0.2926
      2 C         144.5288  140.5308  155.6544 C.ar    1  UNL1        0.2611
      3 O         145.1507  139.1659  155.6742 O.2     1  UNL1       -0.2670
      4 C         144.3956  141.2756  154.3592 C.ar    1  UNL1        0.0623
      5 C         143.7737  142.6404  154.3393 C.ar    1  UNL1        0.0255
      6 C         143.2850  143.2605  155.6148 C.ar    1  UNL1        0.0975
      7 N         142.6631  144.6254  155.5949 N.ar    1  UNL1       -0.2392
      8 C         142.1744  145.2454  156.8703 C.ar    1  UNL1        0.1363
      9 C         142.3076  144.5007  158.1655 C.ar    1  UNL1        0.1658
     10 C         142.9295  143.1358  158.1854 C.ar    1  UNL1        0.0579
     11 C         143.4182  142.5158  156.9100 C.ar    1  UNL1        0.0832
     12 C         144.1733  140.4061  158.2250 C.3     1  UNL1        0.1264
     13 C         143.0360  139.5675  158.7283 C.3     1  UNL1        0.0970
     14 C         141.6511  139.9790  162.9901 C.3     1  UNL1        0.1147
     15 C         140.7552  139.3437  161.9684 C.3     1  UNL1        0.0298
     16 C         141.2168  139.2065  160.5478 C.3     1  UNL1        0.0728
     17 N         142.5744  139.7046  160.1489 N.3     1  UNL1       -0.2710
     18 C         143.4702  140.3399  161.1706 C.3     1  UNL1        0.0728
     19 C         143.0086  140.4771  162.5912 C.3     1  UNL1        0.0298
     20 C         140.2551  141.0241  169.1999 C.2     1  UNL1        0.0547
     21 C         139.1039  140.1057  168.9145 C.2     1  UNL1        0.0103
     22 C         138.9281  139.5277  167.5416 C.2     1  UNL1        0.0505
     23 C         139.9035  139.8681  166.4541 C.2     1  UNL1        0.2318
     24 N         139.9868  139.4539  165.0148 N.2     1  UNL1       -0.0351
     25 C         141.1895  140.1162  164.4107 C.2     1  UNL1        0.3507
     26 N         141.8495  140.9399  165.4766 N.2     1  UNL1       -0.0389
     27 C         141.0546  140.7865  166.7395 C.2     1  UNL1        0.2181
     28 C         141.2304  141.3645  168.1124 C.3     1  UNL1        0.1144
     29 N         140.6066  142.1801  171.9459 N.1     1  UNL1       -0.1911
     30 C         140.4308  141.6021  170.5729 C.1     1  UNL1        0.0965
     31 O         141.8189  145.1208  159.4410 O.3     1  UNL1       -0.4519
     32 C         140.9077  144.3494  160.3490 C.ar    1  UNL1        0.1455
     33 C         141.2192  144.2460  161.8127 C.ar    1  UNL1        0.0389
     34 C         140.3079  143.4745  162.7207 C.ar    1  UNL1        0.0230
     35 C         139.0852  142.8064  162.1651 C.ar    1  UNL1        0.1219
     36 C         138.7738  142.9098  160.7014 C.ar    1  UNL1        0.0230
     37 C         139.6850  143.6813  159.7934 C.ar    1  UNL1        0.0389
     38 S         138.1740  142.0350  163.0731 S.O2    1  UNL1        0.0572
     39 N         137.2628  141.2635  163.9811 N.3     1  UNL1       -0.2035
     40 O         138.8624  142.6271  164.2670 O.2     1  UNL1       -0.1532
     41 O         137.4857  141.4428  161.8792 O.2     1  UNL1       -0.1532
     42 H         137.4976  141.4682  164.9524 H       1  UNL1        0.1442
     43 H         137.3755  140.2647  163.8074 H       1  UNL1        0.1442
@<TRIPOS>BOND
     1    29    30    3
     2    30    20    1
     3    20    21    2
     4    21    22    1
     5    22    23    2
     6    23    24    1
     7    24    25    2
     8    25    14    1
     9    14    15    1
    10    15    16    1
    11    16    17    1
    12    17    13    1
    13    13    12    1
    14    12     1    1
    15     1     2   ar
    16     2     3    2
    17     2     4   ar
    18     4     5   ar
    19     5     6   ar
    20     6     7   ar
    21     7     8   ar
    22     8     9   ar
    23     9    31    1
    24    31    32    1
    25    32    33   ar
    26    33    34   ar
    27    34    35   ar
    28    35    38    1
    29    38    39    1
    30    38    40    2
    31    38    41    2
    32    35    36   ar
    33    36    37   ar
    34     9    10   ar
    35    10    11   ar
    36    17    18    1
    37    18    19    1
    38    25    26    1
    39    26    27    2
    40    27    28    1
    41    28    20    1
    42    27    23    1
    43    19    14    1
    44    11     1   ar
    45    11     6   ar
    46    37    32   ar
    47    39    42    1
    48    39    43    1
@<TRIPOS>MOLECULE
*****
 43 48 0 0 0
SMALL
GASTEIGER

@<TRIPOS>ATOM
      1 N         140.7226  140.7943  168.0087 N.ar    1  UNL1       -0.2926
      2 C         140.5231  140.8994  169.4916 C.ar    1  UNL1        0.2611
      3 O         139.4819  141.8270  170.0444 O.2     1  UNL1       -0.2670
      4 C         141.3646  140.0768  170.4218 C.ar    1  UNL1        0.0623
      5 C         142.4057  139.1492  169.8691 C.ar    1  UNL1        0.0255
      6 C         142.6053  139.0441  168.3861 C.ar    1  UNL1        0.0975
      7 N         143.6464  138.1164  167.8333 N.ar    1  UNL1       -0.2392
      8 C         143.8460  138.0113  166.3504 C.ar    1  UNL1        0.1363
      9 C         143.0044  138.8339  165.4202 C.ar    1  UNL1        0.1658
     10 C         141.9633  139.7615  165.9730 C.ar    1  UNL1        0.0579
     11 C         141.7638  139.8666  167.4559 C.ar    1  UNL1        0.0832
     12 C         139.8811  141.6168  167.0785 C.3     1  UNL1        0.1264
     13 C         140.3036  143.0106  166.7194 C.3     1  UNL1        0.0970
     14 C         140.7719  144.1768  162.3984 C.3     1  UNL1        0.1147
     15 C         139.4145  144.1926  163.0367 C.3     1  UNL1        0.0298
     16 C         139.2584  143.8039  164.4770 C.3     1  UNL1        0.0728
     17 N         140.4597  143.3993  165.2791 N.3     1  UNL1       -0.2710
     18 C         141.8170  143.3835  164.6408 C.3     1  UNL1        0.0728
     19 C         141.9731  143.7722  163.2005 C.3     1  UNL1        0.0298
     20 C         140.8053  146.2369  156.2863 C.2     1  UNL1        0.0547
     21 C         142.0717  145.4368  156.2076 C.2     1  UNL1        0.0103
     22 C         142.5697  144.7002  157.4156 C.2     1  UNL1        0.0505
     23 C         141.8013  144.7636  158.7023 C.2     1  UNL1        0.2318
     24 N         142.0442  144.1467  160.0478 N.2     1  UNL1       -0.0351
     25 C         140.9280  144.5655  160.9581 C.2     1  UNL1        0.3507
     26 N         139.9951  145.4413  160.1751 N.2     1  UNL1       -0.0389
     27 C         140.5350  145.5637  158.7810 C.2     1  UNL1        0.2181
     28 C         140.0370  146.3003  157.5730 C.3     1  UNL1        0.1144
     29 N         139.8094  147.7103  153.8703 N.1     1  UNL1       -0.1911
     30 C         140.3073  146.9736  155.0782 C.1     1  UNL1        0.0965
     31 O         143.2040  138.7288  163.9373 O.3     1  UNL1       -0.4519
     32 C         142.0499  138.9582  163.0070 C.ar    1  UNL1        0.1455
     33 C         140.9965  137.9029  162.8443 C.ar    1  UNL1        0.0389
     34 C         139.8423  138.1324  161.9141 C.ar    1  UNL1        0.0230
     35 C         139.7417  139.4172  161.1465 C.ar    1  UNL1        0.1219
     36 C         140.7952  140.4725  161.3092 C.ar    1  UNL1        0.0230
     37 C         141.9493  140.2430  162.2394 C.ar    1  UNL1        0.0389
     38 S         138.5876  139.6466  160.2163 S.O2    1  UNL1        0.0572
     39 N         137.4334  139.8761  159.2861 N.3     1  UNL1       -0.2035
     40 O         139.5214  139.5897  159.0438 O.2     1  UNL1       -0.1532
     41 O         137.6539  139.7036  161.3888 O.2     1  UNL1       -0.1532
     42 H         137.7704  139.8916  158.3235 H       1  UNL1        0.1442
     43 H         136.9917  140.7688  159.5061 H       1  UNL1        0.1442
@<TRIPOS>BOND
     1    29    30    3
     2    30    20    1
     3    20    21    2
     4    21    22    1
     5    22    23    2
     6    23    24    1
     7    24    25    2
     8    25    14    1
     9    14    15    1
    10    15    16    1
    11    16    17    1
    12    17    13    1
    13    13    12    1
    14    12     1    1
    15     1     2   ar
    16     2     3    2
    17     2     4   ar
    18     4     5   ar
    19     5     6   ar
    20     6     7   ar
    21     7     8   ar
    22     8     9   ar
    23     9    31    1
    24    31    32    1
    25    32    33   ar
    26    33    34   ar
    27    34    35   ar
    28    35    38    1
    29    38    39    1
    30    38    40    2
    31    38    41    2
    32    35    36   ar
    33    36    37   ar
    34     9    10   ar
    35    10    11   ar
    36    17    18    1
    37    18    19    1
    38    25    26    1
    39    26    27    2
    40    27    28    1
    41    28    20    1
    42    27    23    1
    43    19    14    1
    44    11     1   ar
    45    11     6   ar
    46    37    32   ar
    47    39    42    1
    48    39    43    1
