@<TRIPOS>MOLECULE
*****
 37 41 0 0 0
SMALL
GASTEIGER

@<TRIPOS>ATOM
      1 N         140.2452  143.6952  162.3373 N.3     1  UNL1       -0.2750
      2 C         138.9426  143.2480  162.9317 C.3     1  UNL1        0.0737
      3 C         138.9342  142.4151  164.1792 C.3     1  UNL1        0.0374
      4 C         140.2282  142.0294  164.8323 C.3     1  UNL1        0.0800
      5 C         141.5308  142.4766  164.2379 C.3     1  UNL1        0.0374
      6 C         141.5393  143.3095  162.9904 C.3     1  UNL1        0.0737
      7 C         139.8478  144.0640  156.6322 C.2     1  UNL1        0.2557
      8 O         139.9312  145.2684  155.7421 O.2     1  UNL1       -0.2697
      9 N         139.9831  144.2187  158.1181 N.am    1  UNL1       -0.2758
     10 C         139.8997  143.0142  159.0082 C.3     1  UNL1        0.0951
     11 C         140.0350  143.1689  160.4941 C.3     1  UNL1        0.0362
     12 C         140.2537  144.5281  161.0898 C.3     1  UNL1        0.0487
     13 C         140.4694  145.5980  162.1188 C.3     1  UNL1        0.0161
     14 C         140.3370  145.7325  160.1997 C.3     1  UNL1        0.0362
     15 C         140.2018  145.5778  158.7138 C.3     1  UNL1        0.0951
     16 C         142.1972  142.3141  155.9852 C.3     1  UNL1        0.0527
     17 C         140.8038  141.8299  155.7130 C.ar    1  UNL1        0.0753
     18 N         140.5851  140.4708  155.1173 N.ar    1  UNL1       -0.1815
     19 C         139.1918  139.9865  154.8451 C.ar    1  UNL1        0.4121
     20 N         138.0171  140.8614  155.1686 N.ar    1  UNL1       -0.1424
     21 O         136.6238  140.3772  154.8965 O.co2   1  UNL1       -0.6180
     22 C         138.2358  142.2206  155.7643 C.ar    1  UNL1        0.2209
     23 C         137.0611  143.0955  156.0879 C.3     1  UNL1        0.1094
     24 C         139.6292  142.7048  156.0365 C.ar    1  UNL1        0.1274
     25 N         140.2199  141.1966  166.0798 N.pl3   1  UNL1       -0.2884
     26 C         139.4825  139.8904  166.1046 C.ar    1  UNL1        0.0515
     27 C         138.4074  139.6553  167.1238 C.ar    1  UNL1        0.0148
     28 C         137.6701  138.3493  167.1486 C.ar    1  UNL1        0.0013
     29 C         138.0079  137.2784  166.1541 C.ar    1  UNL1        0.0001
     30 C         139.0830  137.5134  165.1349 C.ar    1  UNL1        0.0013
     31 C         139.8204  138.8196  165.1101 C.ar    1  UNL1        0.0148
     32 C         140.9487  141.6696  167.3024 C.ar    1  UNL1        0.0515
     33 C         142.2685  141.0598  167.6718 C.ar    1  UNL1        0.0148
     34 C         142.9973  141.5329  168.8944 C.ar    1  UNL1        0.0013
     35 C         142.4065  142.6158  169.7477 C.ar    1  UNL1        0.0001
     36 C         141.0868  143.2257  169.3783 C.ar    1  UNL1        0.0013
     37 C         140.3579  142.7526  168.1557 C.ar    1  UNL1        0.0148
@<TRIPOS>UNITY_ATOM_ATTR
20 1
charge 1
21 1
charge -1
@<TRIPOS>BOND
     1    16    17    1
     2    17    18   ar
     3    18    19   ar
     4    19    20   ar
     5    20    21    1
     6    20    22   ar
     7    22    23    1
     8    22    24   ar
     9    24     7    1
    10     7     8    2
    11     7     9   am
    12     9    10    1
    13    10    11    1
    14    11    12    1
    15    12    13    1
    16    12     1    1
    17     1     2    1
    18     2     3    1
    19     3     4    1
    20     4    25    1
    21    25    26    1
    22    26    27   ar
    23    27    28   ar
    24    28    29   ar
    25    29    30   ar
    26    30    31   ar
    27    25    32    1
    28    32    33   ar
    29    33    34   ar
    30    34    35   ar
    31    35    36   ar
    32    36    37   ar
    33     4     5    1
    34     5     6    1
    35    12    14    1
    36    14    15    1
    37    24    17   ar
    38    15     9    1
    39     6     1    1
    40    31    26   ar
    41    37    32   ar
@<TRIPOS>MOLECULE
*****
 37 41 0 0 0
SMALL
GASTEIGER

@<TRIPOS>ATOM
      1 N         140.2680  143.6525  162.2681 N.3     1  UNL1       -0.2750
      2 C         138.9730  143.3969  162.9804 C.3     1  UNL1        0.0737
      3 C         138.9576  142.5808  164.2390 C.3     1  UNL1        0.0374
      4 C         140.2373  142.0203  164.7850 C.3     1  UNL1        0.0800
      5 C         141.5324  142.2759  164.0726 C.3     1  UNL1        0.0374
      6 C         141.5477  143.0920  162.8141 C.3     1  UNL1        0.0737
      7 C         139.8328  143.9544  156.5618 C.2     1  UNL1        0.2557
      8 O         139.9333  145.1451  155.6551 O.2     1  UNL1       -0.2697
      9 N         139.9830  144.1258  158.0444 N.am    1  UNL1       -0.2758
     10 C         139.8824  142.9350  158.9511 C.3     1  UNL1        0.0951
     11 C         140.0326  143.1064  160.4336 C.3     1  UNL1        0.0362
     12 C         140.2834  144.4686  161.0096 C.3     1  UNL1        0.0487
     13 C         140.5289  145.5473  162.0226 C.3     1  UNL1        0.0161
     14 C         140.3840  145.6593  160.1029 C.3     1  UNL1        0.0362
     15 C         140.2338  145.4879  158.6203 C.3     1  UNL1        0.0951
     16 C         142.1432  142.1778  155.8505 C.3     1  UNL1        0.0527
     17 C         140.7371  141.7039  155.6303 C.ar    1  UNL1        0.0753
     18 N         140.4863  140.3418  155.0544 N.ar    1  UNL1       -0.1815
     19 C         139.0802  139.8679  154.8342 C.ar    1  UNL1        0.4121
     20 N         137.9251  140.7562  155.1898 N.ar    1  UNL1       -0.1424
     21 O         136.5190  140.2823  154.9696 O.co2   1  UNL1       -0.6180
     22 C         138.1759  142.1183  155.7657 C.ar    1  UNL1        0.2209
     23 C         137.0207  143.0066  156.1213 C.3     1  UNL1        0.1094
     24 C         139.5819  142.5922  155.9859 C.ar    1  UNL1        0.1274
     25 N         140.2220  141.2042  166.0435 N.pl3   1  UNL1       -0.2884
     26 C         140.9350  141.6992  167.2670 C.ar    1  UNL1        0.0515
     27 C         142.2922  141.1623  167.6128 C.ar    1  UNL1        0.0148
     28 C         143.0051  141.6572  168.8362 C.ar    1  UNL1        0.0013
     29 C         142.3609  142.6890  169.7138 C.ar    1  UNL1        0.0001
     30 C         141.0036  143.2260  169.3680 C.ar    1  UNL1        0.0013
     31 C         140.2906  142.7310  168.1445 C.ar    1  UNL1        0.0148
     32 C         139.4939  139.8933  166.0785 C.ar    1  UNL1        0.0515
     33 C         139.8405  138.8163  165.0937 C.ar    1  UNL1        0.0148
     34 C         139.1124  137.5054  165.1288 C.ar    1  UNL1        0.0013
     35 C         138.0377  137.2714  166.1487 C.ar    1  UNL1        0.0001
     36 C         137.6911  138.3485  167.1336 C.ar    1  UNL1        0.0013
     37 C         138.4192  139.6594  167.0985 C.ar    1  UNL1        0.0148
@<TRIPOS>UNITY_ATOM_ATTR
20 1
charge 1
21 1
charge -1
@<TRIPOS>BOND
     1    16    17    1
     2    17    18   ar
     3    18    19   ar
     4    19    20   ar
     5    20    21    1
     6    20    22   ar
     7    22    23    1
     8    22    24   ar
     9    24     7    1
    10     7     8    2
    11     7     9   am
    12     9    10    1
    13    10    11    1
    14    11    12    1
    15    12    13    1
    16    12     1    1
    17     1     2    1
    18     2     3    1
    19     3     4    1
    20     4    25    1
    21    25    26    1
    22    26    27   ar
    23    27    28   ar
    24    28    29   ar
    25    29    30   ar
    26    30    31   ar
    27    25    32    1
    28    32    33   ar
    29    33    34   ar
    30    34    35   ar
    31    35    36   ar
    32    36    37   ar
    33     4     5    1
    34     5     6    1
    35    12    14    1
    36    14    15    1
    37    24    17   ar
    38    15     9    1
    39     6     1    1
    40    31    26   ar
    41    37    32   ar
@<TRIPOS>MOLECULE
*****
 37 41 0 0 0
SMALL
GASTEIGER

@<TRIPOS>ATOM
      1 N         140.2703  143.6839  162.2207 N.3     1  UNL1       -0.2750
      2 C         141.5588  143.1793  162.7995 C.3     1  UNL1        0.0737
      3 C         141.5471  142.3643  164.0587 C.3     1  UNL1        0.0374
      4 C         140.2469  142.0539  164.7392 C.3     1  UNL1        0.0800
      5 C         138.9583  142.5585  164.1604 C.3     1  UNL1        0.0374
      6 C         138.9701  143.3736  162.9011 C.3     1  UNL1        0.0737
      7 C         139.8035  143.9832  156.5168 C.2     1  UNL1        0.2557
      8 O         139.9041  145.1728  155.6086 O.2     1  UNL1       -0.2697
      9 N         139.9630  144.1552  157.9984 N.am    1  UNL1       -0.2758
     10 C         139.8623  142.9655  158.9066 C.3     1  UNL1        0.0951
     11 C         140.0218  143.1375  160.3882 C.3     1  UNL1        0.0362
     12 C         140.2820  144.4990  160.9615 C.3     1  UNL1        0.0487
     13 C         140.5381  145.5774  161.9722 C.3     1  UNL1        0.0161
     14 C         140.3827  145.6885  160.0533 C.3     1  UNL1        0.0362
     15 C         140.2232  145.5166  158.5717 C.3     1  UNL1        0.0951
     16 C         136.9862  143.0729  156.0326 C.3     1  UNL1        0.0527
     17 C         138.1347  142.1666  155.7014 C.ar    1  UNL1        0.0753
     18 N         137.8745  140.8051  155.1281 N.ar    1  UNL1       -0.1815
     19 C         139.0230  139.8988  154.7969 C.ar    1  UNL1        0.4121
     20 N         140.4316  140.3540  155.0390 N.ar    1  UNL1       -0.1424
     21 O         141.5800  139.4477  154.7078 O.co2   1  UNL1       -0.6180
     22 C         140.6917  141.7154  155.6123 C.ar    1  UNL1        0.2209
     23 C         142.1004  142.1706  155.8545 C.3     1  UNL1        0.1094
     24 C         139.5433  142.6217  155.9435 C.ar    1  UNL1        0.1274
     25 N         140.2351  141.2389  165.9983 N.pl3   1  UNL1       -0.2884
     26 C         139.5193  139.9210  166.0320 C.ar    1  UNL1        0.0515
     27 C         139.8949  138.8387  165.0639 C.ar    1  UNL1        0.0148
     28 C         139.1792  137.5208  165.0975 C.ar    1  UNL1        0.0013
     29 C         138.0880  137.2854  166.0993 C.ar    1  UNL1        0.0001
     30 C         137.7124  138.3678  167.0676 C.ar    1  UNL1        0.0013
     31 C         138.4281  139.6857  167.0339 C.ar    1  UNL1        0.0148
     32 C         140.9389  141.7416  167.2238 C.ar    1  UNL1        0.0515
     33 C         140.2634  142.7348  168.1224 C.ar    1  UNL1        0.0148
     34 C         140.9672  143.2375  169.3479 C.ar    1  UNL1        0.0013
     35 C         142.3466  142.7471  169.6748 C.ar    1  UNL1        0.0001
     36 C         143.0221  141.7540  168.7762 C.ar    1  UNL1        0.0013
     37 C         142.3183  141.2513  167.5508 C.ar    1  UNL1        0.0148
@<TRIPOS>UNITY_ATOM_ATTR
20 1
charge 1
21 1
charge -1
@<TRIPOS>BOND
     1    16    17    1
     2    17    18   ar
     3    18    19   ar
     4    19    20   ar
     5    20    21    1
     6    20    22   ar
     7    22    23    1
     8    22    24   ar
     9    24     7    1
    10     7     8    2
    11     7     9   am
    12     9    10    1
    13    10    11    1
    14    11    12    1
    15    12    13    1
    16    12     1    1
    17     1     2    1
    18     2     3    1
    19     3     4    1
    20     4    25    1
    21    25    26    1
    22    26    27   ar
    23    27    28   ar
    24    28    29   ar
    25    29    30   ar
    26    30    31   ar
    27    25    32    1
    28    32    33   ar
    29    33    34   ar
    30    34    35   ar
    31    35    36   ar
    32    36    37   ar
    33     4     5    1
    34     5     6    1
    35    12    14    1
    36    14    15    1
    37    24    17   ar
    38    15     9    1
    39     6     1    1
    40    31    26   ar
    41    37    32   ar
@<TRIPOS>MOLECULE
*****
 37 41 0 0 0
SMALL
GASTEIGER

@<TRIPOS>ATOM
      1 N         140.2933  143.6692  162.1682 N.3     1  UNL1       -0.2750
      2 C         141.5631  143.0597  162.6841 C.3     1  UNL1        0.0737
      3 C         141.5478  142.2518  163.9478 C.3     1  UNL1        0.0374
      4 C         140.2628  142.0532  164.6956 C.3     1  UNL1        0.0800
      5 C         138.9930  142.6627  164.1797 C.3     1  UNL1        0.0374
      6 C         139.0083  143.4707  162.9159 C.3     1  UNL1        0.0737
      7 C         139.8254  143.9393  156.4629 C.2     1  UNL1        0.2557
      8 O         139.9317  145.1232  155.5481 O.2     1  UNL1       -0.2697
      9 N         139.9865  144.1186  157.9434 N.am    1  UNL1       -0.2758
     10 C         139.8802  142.9345  158.8582 C.3     1  UNL1        0.0951
     11 C         140.0413  143.1138  160.3388 C.3     1  UNL1        0.0362
     12 C         140.3086  144.4772  160.9044 C.3     1  UNL1        0.0487
     13 C         140.5706  145.5599  161.9090 C.3     1  UNL1        0.0161
     14 C         140.4149  145.6611  159.9896 C.3     1  UNL1        0.0362
     15 C         140.2538  145.4818  158.5091 C.3     1  UNL1        0.0951
     16 C         137.0017  143.0117  156.0551 C.3     1  UNL1        0.0527
     17 C         138.1463  142.1122  155.6933 C.ar    1  UNL1        0.0753
     18 N         137.8790  140.7489  155.1277 N.ar    1  UNL1       -0.1815
     19 C         139.0235  139.8494  154.7659 C.ar    1  UNL1        0.4121
     20 N         140.4354  140.3132  154.9698 N.ar    1  UNL1       -0.1424
     21 O         141.5799  139.4137  154.6080 O.co2   1  UNL1       -0.6180
     22 C         140.7026  141.6764  155.5354 C.ar    1  UNL1        0.2209
     23 C         142.1145  142.1403  155.7393 C.3     1  UNL1        0.1094
     24 C         139.5581  142.5760  155.8972 C.ar    1  UNL1        0.1274
     25 N         140.2474  141.2453  165.9593 N.pl3   1  UNL1       -0.2884
     26 C         140.9416  141.7586  167.1861 C.ar    1  UNL1        0.0515
     27 C         140.2366  142.7146  168.1020 C.ar    1  UNL1        0.0148
     28 C         140.9307  143.2278  169.3287 C.ar    1  UNL1        0.0013
     29 C         142.3297  142.7851  169.6395 C.ar    1  UNL1        0.0001
     30 C         143.0347  141.8290  168.7235 C.ar    1  UNL1        0.0013
     31 C         142.3406  141.3157  167.4967 C.ar    1  UNL1        0.0148
     32 C         139.5381  139.9242  165.9963 C.ar    1  UNL1        0.0515
     33 C         138.4396  139.6903  166.9907 C.ar    1  UNL1        0.0148
     34 C         137.7302  138.3693  167.0277 C.ar    1  UNL1        0.0013
     35 C         138.1193  137.2820  166.0704 C.ar    1  UNL1        0.0001
     36 C         139.2177  137.5158  165.0761 C.ar    1  UNL1        0.0013
     37 C         139.9271  138.8369  165.0390 C.ar    1  UNL1        0.0148
@<TRIPOS>UNITY_ATOM_ATTR
20 1
charge 1
21 1
charge -1
@<TRIPOS>BOND
     1    16    17    1
     2    17    18   ar
     3    18    19   ar
     4    19    20   ar
     5    20    21    1
     6    20    22   ar
     7    22    23    1
     8    22    24   ar
     9    24     7    1
    10     7     8    2
    11     7     9   am
    12     9    10    1
    13    10    11    1
    14    11    12    1
    15    12    13    1
    16    12     1    1
    17     1     2    1
    18     2     3    1
    19     3     4    1
    20     4    25    1
    21    25    26    1
    22    26    27   ar
    23    27    28   ar
    24    28    29   ar
    25    29    30   ar
    26    30    31   ar
    27    25    32    1
    28    32    33   ar
    29    33    34   ar
    30    34    35   ar
    31    35    36   ar
    32    36    37   ar
    33     4     5    1
    34     5     6    1
    35    12    14    1
    36    14    15    1
    37    24    17   ar
    38    15     9    1
    39     6     1    1
    40    31    26   ar
    41    37    32   ar
@<TRIPOS>MOLECULE
*****
 37 41 0 0 0
SMALL
GASTEIGER

@<TRIPOS>ATOM
      1 N         141.3494  143.0186  161.9304 N.3     1  UNL1       -0.2750
      2 C         139.9539  142.9468  162.4759 C.3     1  UNL1        0.0737
      3 C         139.6978  142.2807  163.7953 C.3     1  UNL1        0.0374
      4 C         140.8370  141.6864  164.5691 C.3     1  UNL1        0.0800
      5 C         142.2324  141.7582  164.0236 C.3     1  UNL1        0.0374
      6 C         142.4886  142.4243  162.7042 C.3     1  UNL1        0.0737
      7 C         143.0549  142.6866  156.4693 C.2     1  UNL1        0.2557
      8 O         143.1429  143.7610  155.4264 O.2     1  UNL1       -0.2697
      9 N         142.5718  143.0193  157.8499 N.am    1  UNL1       -0.2758
     10 C         142.4838  141.9448  158.8929 C.3     1  UNL1        0.0951
     11 C         142.0006  142.2775  160.2735 C.3     1  UNL1        0.0362
     12 C         141.6055  143.6847  160.6110 C.3     1  UNL1        0.0487
     13 C         141.1214  144.8605  161.4068 C.3     1  UNL1        0.0161
     14 C         141.6935  144.7590  159.5680 C.3     1  UNL1        0.0362
     15 C         142.1767  144.4264  158.1874 C.3     1  UNL1        0.0951
     16 C         145.9098  141.8162  156.7732 C.3     1  UNL1        0.0527
     17 C         144.8774  140.8443  156.2838 C.ar    1  UNL1        0.0753
     18 N         145.2725  139.4372  155.9463 N.ar    1  UNL1       -0.1815
     19 C         144.2401  138.4652  155.4568 C.ar    1  UNL1        0.4121
     20 N         142.8127  138.9004  155.3049 N.ar    1  UNL1       -0.1424
     21 O         141.7804  137.9284  154.8154 O.co2   1  UNL1       -0.6180
     22 C         142.4177  140.3075  155.6424 C.ar    1  UNL1        0.2209
     23 C         140.9902  140.7427  155.4904 C.3     1  UNL1        0.1094
     24 C         143.4500  141.2794  156.1318 C.ar    1  UNL1        0.1274
     25 N         140.5809  141.0204  165.8885 N.pl3   1  UNL1       -0.2884
     26 C         141.1697  141.5922  167.1441 C.ar    1  UNL1        0.0515
     27 C         142.4932  141.0956  167.6456 C.ar    1  UNL1        0.0148
     28 C         143.0820  141.6674  168.9012 C.ar    1  UNL1        0.0013
     29 C         142.3472  142.7359  169.6551 C.ar    1  UNL1        0.0001
     30 C         141.0236  143.2325  169.1536 C.ar    1  UNL1        0.0013
     31 C         140.4349  142.6607  167.8980 C.ar    1  UNL1        0.0148
     32 C         139.7362  139.7825  165.9524 C.ar    1  UNL1        0.0515
     33 C         140.0057  138.6414  165.0168 C.ar    1  UNL1        0.0148
     34 C         139.1610  137.4036  165.0806 C.ar    1  UNL1        0.0013
     35 C         138.0467  137.3068  166.0801 C.ar    1  UNL1        0.0001
     36 C         137.7771  138.4479  167.0157 C.ar    1  UNL1        0.0013
     37 C         138.6219  139.6857  166.9518 C.ar    1  UNL1        0.0148
@<TRIPOS>UNITY_ATOM_ATTR
20 1
charge 1
21 1
charge -1
@<TRIPOS>BOND
     1    16    17    1
     2    17    18   ar
     3    18    19   ar
     4    19    20   ar
     5    20    21    1
     6    20    22   ar
     7    22    23    1
     8    22    24   ar
     9    24     7    1
    10     7     8    2
    11     7     9   am
    12     9    10    1
    13    10    11    1
    14    11    12    1
    15    12    13    1
    16    12     1    1
    17     1     2    1
    18     2     3    1
    19     3     4    1
    20     4    25    1
    21    25    26    1
    22    26    27   ar
    23    27    28   ar
    24    28    29   ar
    25    29    30   ar
    26    30    31   ar
    27    25    32    1
    28    32    33   ar
    29    33    34   ar
    30    34    35   ar
    31    35    36   ar
    32    36    37   ar
    33     4     5    1
    34     5     6    1
    35    12    14    1
    36    14    15    1
    37    24    17   ar
    38    15     9    1
    39     6     1    1
    40    31    26   ar
    41    37    32   ar
@<TRIPOS>MOLECULE
*****
 37 41 0 0 0
SMALL
GASTEIGER

@<TRIPOS>ATOM
      1 N         140.4598  138.6567  160.1006 N.3     1  UNL1       -0.2750
      2 C         141.9231  138.3269  160.1007 C.3     1  UNL1        0.0737
      3 C         142.5817  137.8374  158.8450 C.3     1  UNL1        0.0374
      4 C         141.7770  137.6779  157.5893 C.3     1  UNL1        0.0800
      5 C         140.3137  138.0077  157.5892 C.3     1  UNL1        0.0374
      6 C         139.6552  138.4971  158.8449 C.3     1  UNL1        0.0737
      7 C         140.2992  142.3345  164.4927 C.2     1  UNL1        0.2557
      8 O         139.3236  142.4284  165.6282 O.2     1  UNL1       -0.2697
      9 N         140.1332  141.2717  163.4472 N.am    1  UNL1       -0.2758
     10 C         141.1088  141.1778  162.3117 C.3     1  UNL1        0.0951
     11 C         140.9429  140.1151  161.2662 C.3     1  UNL1        0.0362
     12 C         139.8013  139.1462  161.3563 C.3     1  UNL1        0.0487
     13 C         138.8884  138.0073  161.0103 C.3     1  UNL1        0.0161
     14 C         138.8257  139.2401  162.4918 C.3     1  UNL1        0.0362
     15 C         138.9917  140.3029  163.5373 C.3     1  UNL1        0.0951
     16 C         139.9442  144.9410  163.0503 C.3     1  UNL1        0.0527
     17 C         141.2633  144.6066  163.6814 C.ar    1  UNL1        0.0753
     18 N         142.4049  145.5754  163.5913 N.ar    1  UNL1       -0.1815
     19 C         143.7239  145.2410  164.2224 C.ar    1  UNL1        0.4121
     20 N         143.9014  143.9378  164.9436 N.ar    1  UNL1       -0.1424
     21 O         145.2205  143.6034  165.5746 O.co2   1  UNL1       -0.6180
     22 C         142.7598  142.9690  165.0336 C.ar    1  UNL1        0.2209
     23 C         142.9373  141.6657  165.7548 C.3     1  UNL1        0.1094
     24 C         141.4408  143.3034  164.4026 C.ar    1  UNL1        0.1274
     25 N         142.4355  137.1884  156.3336 N.pl3   1  UNL1       -0.2884
     26 C         142.5186  135.7168  156.0549 C.ar    1  UNL1        0.0515
     27 C         143.7248  134.9381  156.4892 C.ar    1  UNL1        0.0148
     28 C         143.8078  133.4666  156.2105 C.ar    1  UNL1        0.0013
     29 C         142.6847  132.7737  155.4975 C.ar    1  UNL1        0.0001
     30 C         141.4784  133.5524  155.0631 C.ar    1  UNL1        0.0013
     31 C         141.3954  135.0241  155.3418 C.ar    1  UNL1        0.0148
     32 C         143.0109  138.1704  155.3566 C.ar    1  UNL1        0.0515
     33 C         144.4871  138.4362  155.3417 C.ar    1  UNL1        0.0148
     34 C         145.0626  139.4182  154.3647 C.ar    1  UNL1        0.0013
     35 C         144.1618  140.1345  153.4026 C.ar    1  UNL1        0.0001
     36 C         142.6856  139.8687  153.4176 C.ar    1  UNL1        0.0013
     37 C         142.1102  138.8867  154.3945 C.ar    1  UNL1        0.0148
@<TRIPOS>UNITY_ATOM_ATTR
20 1
charge 1
21 1
charge -1
@<TRIPOS>BOND
     1    16    17    1
     2    17    18   ar
     3    18    19   ar
     4    19    20   ar
     5    20    21    1
     6    20    22   ar
     7    22    23    1
     8    22    24   ar
     9    24     7    1
    10     7     8    2
    11     7     9   am
    12     9    10    1
    13    10    11    1
    14    11    12    1
    15    12    13    1
    16    12     1    1
    17     1     2    1
    18     2     3    1
    19     3     4    1
    20     4    25    1
    21    25    26    1
    22    26    27   ar
    23    27    28   ar
    24    28    29   ar
    25    29    30   ar
    26    30    31   ar
    27    25    32    1
    28    32    33   ar
    29    33    34   ar
    30    34    35   ar
    31    35    36   ar
    32    36    37   ar
    33     4     5    1
    34     5     6    1
    35    12    14    1
    36    14    15    1
    37    24    17   ar
    38    15     9    1
    39     6     1    1
    40    31    26   ar
    41    37    32   ar
@<TRIPOS>MOLECULE
*****
 37 41 0 0 0
SMALL
GASTEIGER

@<TRIPOS>ATOM
      1 N         140.4488  138.6481  160.0868 N.3     1  UNL1       -0.2750
      2 C         141.9091  138.3056  160.0956 C.3     1  UNL1        0.0737
      3 C         142.5716  137.8134  158.8430 C.3     1  UNL1        0.0374
      4 C         141.7738  137.6636  157.5817 C.3     1  UNL1        0.0800
      5 C         140.3134  138.0060  157.5729 C.3     1  UNL1        0.0374
      6 C         139.6509  138.4983  158.8255 C.3     1  UNL1        0.0737
      7 C         140.2843  142.3249  164.4795 C.2     1  UNL1        0.2557
      8 O         139.3035  142.4233  165.6101 O.2     1  UNL1       -0.2697
      9 N         140.1183  141.2634  163.4328 N.am    1  UNL1       -0.2758
     10 C         141.0992  141.1650  162.3022 C.3     1  UNL1        0.0951
     11 C         140.9332  140.1035  161.2554 C.3     1  UNL1        0.0362
     12 C         139.7863  139.1403  161.3393 C.3     1  UNL1        0.0487
     13 C         138.8695  138.0062  160.9882 C.3     1  UNL1        0.0161
     14 C         138.8055  139.2387  162.4699 C.3     1  UNL1        0.0362
     15 C         138.9715  140.3002  163.5166 C.3     1  UNL1        0.0951
     16 C         139.9496  144.9340  163.0371 C.3     1  UNL1        0.0527
     17 C         141.2638  144.5926  163.6744 C.ar    1  UNL1        0.0753
     18 N         142.4107  145.5557  163.5905 N.ar    1  UNL1       -0.1815
     19 C         143.7250  145.2143  164.2278 C.ar    1  UNL1        0.4121
     20 N         143.8923  143.9097  164.9490 N.ar    1  UNL1       -0.1424
     21 O         145.2066  143.5683  165.5863 O.co2   1  UNL1       -0.6180
     22 C         142.7455  142.9466  165.0329 C.ar    1  UNL1        0.2209
     23 C         142.9128  141.6420  165.7541 C.3     1  UNL1        0.1094
     24 C         141.4312  143.2881  164.3956 C.ar    1  UNL1        0.1274
     25 N         142.4361  137.1714  156.3292 N.pl3   1  UNL1       -0.2884
     26 C         143.0161  138.1513  155.3527 C.ar    1  UNL1        0.0515
     27 C         142.1355  138.7939  154.3224 C.ar    1  UNL1        0.0148
     28 C         142.7154  139.7738  153.3460 C.ar    1  UNL1        0.0013
     29 C         144.1760  140.1111  153.3998 C.ar    1  UNL1        0.0001
     30 C         145.0567  139.4685  154.4301 C.ar    1  UNL1        0.0013
     31 C         144.4767  138.4886  155.4066 C.ar    1  UNL1        0.0148
     32 C         142.5186  135.6993  156.0530 C.ar    1  UNL1        0.0515
     33 C         141.3947  135.0055  155.3422 C.ar    1  UNL1        0.0148
     34 C         141.4771  133.5335  155.0660 C.ar    1  UNL1        0.0013
     35 C         142.6835  132.7552  155.5007 C.ar    1  UNL1        0.0001
     36 C         143.8075  133.4491  156.2116 C.ar    1  UNL1        0.0013
     37 C         143.7250  134.9211  156.4877 C.ar    1  UNL1        0.0148
@<TRIPOS>UNITY_ATOM_ATTR
20 1
charge 1
21 1
charge -1
@<TRIPOS>BOND
     1    16    17    1
     2    17    18   ar
     3    18    19   ar
     4    19    20   ar
     5    20    21    1
     6    20    22   ar
     7    22    23    1
     8    22    24   ar
     9    24     7    1
    10     7     8    2
    11     7     9   am
    12     9    10    1
    13    10    11    1
    14    11    12    1
    15    12    13    1
    16    12     1    1
    17     1     2    1
    18     2     3    1
    19     3     4    1
    20     4    25    1
    21    25    26    1
    22    26    27   ar
    23    27    28   ar
    24    28    29   ar
    25    29    30   ar
    26    30    31   ar
    27    25    32    1
    28    32    33   ar
    29    33    34   ar
    30    34    35   ar
    31    35    36   ar
    32    36    37   ar
    33     4     5    1
    34     5     6    1
    35    12    14    1
    36    14    15    1
    37    24    17   ar
    38    15     9    1
    39     6     1    1
    40    31    26   ar
    41    37    32   ar
@<TRIPOS>MOLECULE
*****
 37 41 0 0 0
SMALL
GASTEIGER

@<TRIPOS>ATOM
      1 N         143.1209  141.7609  162.6421 N.3     1  UNL1       -0.2750
      2 C         143.7474  140.7673  163.5749 C.3     1  UNL1        0.0737
      3 C         143.0766  140.4318  164.8740 C.3     1  UNL1        0.0374
      4 C         141.7795  141.0899  165.2402 C.3     1  UNL1        0.0800
      5 C         141.1530  142.0836  164.3074 C.3     1  UNL1        0.0374
      6 C         141.8238  142.4190  163.0083 C.3     1  UNL1        0.0737
      7 C         143.1754  141.5919  156.9140 C.2     1  UNL1        0.2557
      8 O         144.1883  142.1333  155.9493 O.2     1  UNL1       -0.2697
      9 N         143.3808  141.7600  158.3903 N.am    1  UNL1       -0.2758
     10 C         142.3677  141.2185  159.3550 C.3     1  UNL1        0.0951
     11 C         142.5732  141.3867  160.8313 C.3     1  UNL1        0.0362
     12 C         143.7917  142.0964  161.3430 C.3     1  UNL1        0.0487
     13 C         144.7772  142.6896  162.3058 C.3     1  UNL1        0.0161
     14 C         144.8047  142.6379  160.3783 C.3     1  UNL1        0.0362
     15 C         144.5992  142.4697  158.9020 C.3     1  UNL1        0.0951
     16 C         140.6777  143.1418  156.3145 C.3     1  UNL1        0.0527
     17 C         140.7081  141.6571  156.1026 C.ar    1  UNL1        0.0753
     18 N         139.4897  140.9474  155.5910 N.ar    1  UNL1       -0.1815
     19 C         139.5200  139.4628  155.3792 C.ar    1  UNL1        0.4121
     20 N         140.7688  138.6878  155.6790 N.ar    1  UNL1       -0.1424
     21 O         140.7992  137.2032  155.4671 O.co2   1  UNL1       -0.6180
     22 C         141.9872  139.3975  156.1906 C.ar    1  UNL1        0.2209
     23 C         143.2361  138.6225  156.4904 C.3     1  UNL1        0.1094
     24 C         141.9569  140.8822  156.4024 C.ar    1  UNL1        0.1274
     25 N         141.1087  140.7545  166.5392 N.pl3   1  UNL1       -0.2884
     26 C         141.5689  141.4042  167.8106 C.ar    1  UNL1        0.0515
     27 C         140.8576  142.6169  168.3333 C.ar    1  UNL1        0.0148
     28 C         141.3178  143.2665  169.6046 C.ar    1  UNL1        0.0013
     29 C         142.4893  142.7034  170.3532 C.ar    1  UNL1        0.0001
     30 C         143.2007  141.4906  169.8305 C.ar    1  UNL1        0.0013
     31 C         142.7404  140.8410  168.5591 C.ar    1  UNL1        0.0148
     32 C         139.9778  139.7696  166.5670 C.ar    1  UNL1        0.0515
     33 C         139.8299  138.7659  165.4620 C.ar    1  UNL1        0.0148
     34 C         138.6990  137.7810  165.4898 C.ar    1  UNL1        0.0013
     35 C         137.7159  137.7996  166.6225 C.ar    1  UNL1        0.0001
     36 C         137.8637  138.8032  167.7275 C.ar    1  UNL1        0.0013
     37 C         138.9946  139.7882  167.6997 C.ar    1  UNL1        0.0148
@<TRIPOS>UNITY_ATOM_ATTR
20 1
charge 1
21 1
charge -1
@<TRIPOS>BOND
     1    16    17    1
     2    17    18   ar
     3    18    19   ar
     4    19    20   ar
     5    20    21    1
     6    20    22   ar
     7    22    23    1
     8    22    24   ar
     9    24     7    1
    10     7     8    2
    11     7     9   am
    12     9    10    1
    13    10    11    1
    14    11    12    1
    15    12    13    1
    16    12     1    1
    17     1     2    1
    18     2     3    1
    19     3     4    1
    20     4    25    1
    21    25    26    1
    22    26    27   ar
    23    27    28   ar
    24    28    29   ar
    25    29    30   ar
    26    30    31   ar
    27    25    32    1
    28    32    33   ar
    29    33    34   ar
    30    34    35   ar
    31    35    36   ar
    32    36    37   ar
    33     4     5    1
    34     5     6    1
    35    12    14    1
    36    14    15    1
    37    24    17   ar
    38    15     9    1
    39     6     1    1
    40    31    26   ar
    41    37    32   ar
@<TRIPOS>MOLECULE
*****
 37 41 0 0 0
SMALL
GASTEIGER

@<TRIPOS>ATOM
      1 N         142.8929  141.7764  162.3231 N.3     1  UNL1       -0.2750
      2 C         143.5087  140.6882  163.1518 C.3     1  UNL1        0.0737
      3 C         142.8889  140.3013  164.4618 C.3     1  UNL1        0.0374
      4 C         141.6533  141.0025  164.9431 C.3     1  UNL1        0.0800
      5 C         141.0376  142.0907  164.1144 C.3     1  UNL1        0.0374
      6 C         141.6574  142.4776  162.8044 C.3     1  UNL1        0.0737
      7 C         142.3256  143.0276  156.7594 C.2     1  UNL1        0.2557
      8 O         143.3712  143.3956  155.7489 O.2     1  UNL1       -0.2697
      9 N         142.7213  142.7395  158.1773 N.am    1  UNL1       -0.2758
     10 C         141.6756  142.3715  159.1878 C.3     1  UNL1        0.0951
     11 C         142.0713  142.0834  160.6057 C.3     1  UNL1        0.0362
     12 C         143.5128  142.1633  161.0131 C.3     1  UNL1        0.0487
     13 C         144.7390  142.1089  161.8754 C.3     1  UNL1        0.0161
     14 C         144.5584  142.5313  160.0026 C.3     1  UNL1        0.0362
     15 C         144.1627  142.8194  158.5847 C.3     1  UNL1        0.0951
     16 C         140.5957  145.4758  156.8765 C.3     1  UNL1        0.0527
     17 C         140.0192  144.1717  156.4106 C.ar    1  UNL1        0.0753
     18 N         138.5778  144.0917  156.0033 N.ar    1  UNL1       -0.1815
     19 C         138.0014  142.7876  155.5374 C.ar    1  UNL1        0.4121
     20 N         138.8663  141.5635  155.4788 N.ar    1  UNL1       -0.1424
     21 O         138.2898  140.2595  155.0129 O.co2   1  UNL1       -0.6180
     22 C         140.3077  141.6435  155.8861 C.ar    1  UNL1        0.2209
     23 C         141.1727  140.4194  155.8276 C.3     1  UNL1        0.1094
     24 C         140.8841  142.9476  156.3521 C.ar    1  UNL1        0.1274
     25 N         141.0335  140.6156  166.2531 N.pl3   1  UNL1       -0.2884
     26 C         139.9453  139.5838  166.2922 C.ar    1  UNL1        0.0515
     27 C         139.9188  138.4827  165.2739 C.ar    1  UNL1        0.0148
     28 C         138.8307  137.4510  165.3130 C.ar    1  UNL1        0.0013
     29 C         137.7691  137.5203  166.3703 C.ar    1  UNL1        0.0001
     30 C         137.7954  138.6215  167.3886 C.ar    1  UNL1        0.0013
     31 C         138.8836  139.6533  167.3495 C.ar    1  UNL1        0.0148
     32 C         141.5016  141.2604  167.5239 C.ar    1  UNL1        0.0515
     33 C         142.6475  140.6665  168.2883 C.ar    1  UNL1        0.0148
     34 C         143.1157  141.3113  169.5591 C.ar    1  UNL1        0.0013
     35 C         142.4380  142.5499  170.0656 C.ar    1  UNL1        0.0001
     36 C         141.2921  143.1438  169.3011 C.ar    1  UNL1        0.0013
     37 C         140.8239  142.4990  168.0303 C.ar    1  UNL1        0.0148
@<TRIPOS>UNITY_ATOM_ATTR
20 1
charge 1
21 1
charge -1
@<TRIPOS>BOND
     1    16    17    1
     2    17    18   ar
     3    18    19   ar
     4    19    20   ar
     5    20    21    1
     6    20    22   ar
     7    22    23    1
     8    22    24   ar
     9    24     7    1
    10     7     8    2
    11     7     9   am
    12     9    10    1
    13    10    11    1
    14    11    12    1
    15    12    13    1
    16    12     1    1
    17     1     2    1
    18     2     3    1
    19     3     4    1
    20     4    25    1
    21    25    26    1
    22    26    27   ar
    23    27    28   ar
    24    28    29   ar
    25    29    30   ar
    26    30    31   ar
    27    25    32    1
    28    32    33   ar
    29    33    34   ar
    30    34    35   ar
    31    35    36   ar
    32    36    37   ar
    33     4     5    1
    34     5     6    1
    35    12    14    1
    36    14    15    1
    37    24    17   ar
    38    15     9    1
    39     6     1    1
    40    31    26   ar
    41    37    32   ar
