@<TRIPOS>MOLECULE
*****
 34 38 0 0 0
SMALL
GASTEIGER

@<TRIPOS>ATOM
      1 C         140.3884  142.9581  166.2230 C.ar    1  UNL1        0.1390
      2 C         139.4521  144.1300  166.2256 C.ar    1  UNL1        0.0366
      3 C         139.1744  144.8710  164.9513 C.ar    1  UNL1        0.0008
      4 C         139.8331  144.4402  163.6744 C.ar    1  UNL1        0.0021
      5 C         140.7694  143.2684  163.6718 C.ar    1  UNL1       -0.0168
      6 C         141.0470  142.5273  164.9461 C.ar    1  UNL1        0.0327
      7 C         141.2680  143.0765  162.2701 C.3     1  UNL1        0.0520
      8 C         140.6398  144.1299  161.4065 C.2     1  UNL1        0.0074
      9 C         140.5596  144.6624  160.0065 C.2     1  UNL1        0.0976
     10 N         139.6233  145.8342  160.0091 N.2     1  UNL1       -0.1526
     11 N         139.1248  146.0260  161.4108 N.2     1  UNL1       -0.1678
     12 C         139.7530  144.9727  162.2744 C.3     1  UNL1        0.1672
     13 C         141.2879  144.1185  158.8133 C.ar    1  UNL1        0.0265
     14 C         140.7124  143.9253  157.4416 C.ar    1  UNL1        0.0376
     15 S         141.7884  143.3597  156.5628 S.2     1  UNL1       -0.0780
     16 C         143.0291  143.2033  157.3915 C.ar    1  UNL1        0.0711
     17 C         142.7197  143.6722  158.7823 C.ar    1  UNL1        0.0168
     18 C         144.3474  142.6713  156.9131 C.1     1  UNL1       -0.0543
     19 C         145.6658  142.1393  156.4347 C.1     1  UNL1       -0.0388
     20 C         146.9842  141.6073  155.9562 C.3     1  UNL1        0.2814
     21 O         147.4081  141.8225  154.5335 O.3     1  UNL1       -0.4612
     22 C         148.8080  142.2655  154.2269 C.ar    1  UNL1        0.1400
     23 C         149.0500  143.3223  153.1904 C.ar    1  UNL1        0.0369
     24 C         150.4499  143.7654  152.8837 C.ar    1  UNL1        0.0031
     25 C         151.6077  143.1516  153.6136 C.ar    1  UNL1        0.0002
     26 C         151.3656  142.0947  154.6502 C.ar    1  UNL1        0.0031
     27 C         149.9658  141.6517  154.9568 C.ar    1  UNL1        0.0369
     28 O         140.6660  142.2171  167.4972 O.3     1  UNL1       -0.4656
     29 C         140.7202  140.7181  167.4966 C.3     1  UNL1        0.2896
     30 C         137.5359  138.3950  167.0347 C.3     1  UNL1        0.1150
     31 N         138.7680  139.1902  166.7191 N.am    1  UNL1       -0.2730
     32 C         139.2800  139.2526  165.3106 C.3     1  UNL1        0.1150
     33 C         139.4881  139.9229  167.8121 C.2     1  UNL1        0.2703
     34 O         138.9761  139.8605  169.2206 O.2     1  UNL1       -0.2708
@<TRIPOS>BOND
     1    30    31    1
     2    31    32    1
     3    31    33   am
     4    33    34    2
     5    33    29    1
     6    29    28    1
     7    28     1    1
     8     1     2   ar
     9     2     3   ar
    10     3     4   ar
    11     4     5   ar
    12     5     6   ar
    13     5     7    1
    14     7     8    1
    15     8     9    2
    16     9    13    1
    17    13    14   ar
    18    14    15   ar
    19    15    16   ar
    20    16    18    1
    21    18    19    3
    22    19    20    1
    23    20    21    1
    24    21    22    1
    25    22    23   ar
    26    23    24   ar
    27    24    25   ar
    28    25    26   ar
    29    26    27   ar
    30    16    17   ar
    31     9    10    1
    32    10    11    2
    33    11    12    1
    34     6     1   ar
    35    12     8    1
    36    12     4    1
    37    17    13   ar
    38    27    22   ar
@<TRIPOS>MOLECULE
*****
 34 38 0 0 0
SMALL
GASTEIGER

@<TRIPOS>ATOM
      1 C         144.0768  130.9553  155.3322 C.ar    1  UNL1        0.1390
      2 C         142.9200  131.1578  154.3991 C.ar    1  UNL1        0.0366
      3 C         142.1427  132.4402  154.4354 C.ar    1  UNL1        0.0008
      4 C         142.5223  133.5201  155.4048 C.ar    1  UNL1        0.0021
      5 C         143.6791  133.3176  156.3378 C.ar    1  UNL1       -0.0168
      6 C         144.4564  132.0352  156.3015 C.ar    1  UNL1        0.0327
      7 C         143.8183  134.5522  157.1785 C.3     1  UNL1        0.0520
      8 C         142.7474  135.5177  156.7649 C.2     1  UNL1        0.0074
      9 C         142.1716  136.8773  157.0287 C.2     1  UNL1        0.0976
     10 N         141.0147  137.0798  156.0957 N.2     1  UNL1       -0.1526
     11 N         140.8756  135.8453  155.2551 N.2     1  UNL1       -0.1678
     12 C         141.9465  134.8798  155.6687 C.3     1  UNL1        0.1672
     13 C         142.6658  137.8617  158.0469 C.ar    1  UNL1        0.0265
     14 C         143.0349  139.2917  157.7842 C.ar    1  UNL1        0.0376
     15 S         143.4750  139.9027  159.0815 S.2     1  UNL1       -0.0780
     16 C         143.3778  138.8503  160.1461 C.ar    1  UNL1        0.0711
     17 C         142.8777  137.5889  159.5067 C.ar    1  UNL1        0.0168
     18 C         143.7206  139.0282  161.5955 C.1     1  UNL1       -0.0543
     19 C         144.0632  139.2061  163.0449 C.1     1  UNL1       -0.0388
     20 C         144.4059  139.3841  164.4945 C.3     1  UNL1        0.2814
     21 O         143.6601  138.6115  165.5418 O.3     1  UNL1       -0.4612
     22 C         142.1604  138.5844  165.5278 C.ar    1  UNL1        0.1400
     23 C         141.4367  137.5318  164.7416 C.ar    1  UNL1        0.0369
     24 C         139.9370  137.5046  164.7276 C.ar    1  UNL1        0.0031
     25 C         139.1611  138.5300  165.4998 C.ar    1  UNL1        0.0002
     26 C         139.8848  139.5826  166.2861 C.ar    1  UNL1        0.0031
     27 C         141.3845  139.6098  166.3001 C.ar    1  UNL1        0.0369
     28 O         144.8541  129.6729  155.2958 O.3     1  UNL1       -0.4656
     29 C         144.3395  128.4633  156.0182 C.3     1  UNL1        0.2896
     30 C         142.6412  127.9049  159.5614 C.3     1  UNL1        0.1150
     31 N         142.8878  127.8471  158.0830 N.am    1  UNL1       -0.2730
     32 C         141.9294  127.1155  157.1908 C.3     1  UNL1        0.1150
     33 C         144.0929  128.5211  157.4967 C.2     1  UNL1        0.2703
     34 O         145.0513  129.2527  158.3889 O.2     1  UNL1       -0.2708
@<TRIPOS>BOND
     1    30    31    1
     2    31    32    1
     3    31    33   am
     4    33    34    2
     5    33    29    1
     6    29    28    1
     7    28     1    1
     8     1     2   ar
     9     2     3   ar
    10     3     4   ar
    11     4     5   ar
    12     5     6   ar
    13     5     7    1
    14     7     8    1
    15     8     9    2
    16     9    13    1
    17    13    14   ar
    18    14    15   ar
    19    15    16   ar
    20    16    18    1
    21    18    19    3
    22    19    20    1
    23    20    21    1
    24    21    22    1
    25    22    23   ar
    26    23    24   ar
    27    24    25   ar
    28    25    26   ar
    29    26    27   ar
    30    16    17   ar
    31     9    10    1
    32    10    11    2
    33    11    12    1
    34     6     1   ar
    35    12     8    1
    36    12     4    1
    37    17    13   ar
    38    27    22   ar
@<TRIPOS>MOLECULE
*****
 34 38 0 0 0
SMALL
GASTEIGER

@<TRIPOS>ATOM
      1 C         136.7943  140.8587  156.0675 C.ar    1  UNL1        0.1390
      2 C         137.3763  141.8163  155.0704 C.ar    1  UNL1        0.0366
      3 C         138.3280  142.8838  155.5229 C.ar    1  UNL1        0.0008
      4 C         138.6977  142.9937  156.9724 C.ar    1  UNL1        0.0021
      5 C         138.1157  142.0361  157.9695 C.ar    1  UNL1       -0.0168
      6 C         137.1641  140.9686  157.5171 C.ar    1  UNL1        0.0327
      7 C         138.6615  142.3867  159.3221 C.3     1  UNL1        0.0520
      8 C         139.5807  143.5610  159.1609 C.2     1  UNL1        0.0074
      9 C         140.4861  144.5034  159.8970 C.2     1  UNL1        0.0976
     10 N         141.0681  145.4610  158.8999 N.2     1  UNL1       -0.1526
     11 N         140.5224  145.1104  157.5475 N.2     1  UNL1       -0.1678
     12 C         139.6031  143.9361  157.7087 C.3     1  UNL1        0.1672
     13 C         140.7612  144.4905  161.3715 C.ar    1  UNL1        0.0265
     14 C         140.6266  145.6579  162.3039 C.ar    1  UNL1        0.0376
     15 S         141.0014  145.1968  163.6812 S.2     1  UNL1       -0.0780
     16 C         141.3678  143.7444  163.6000 C.ar    1  UNL1        0.0711
     17 C         141.2194  143.3079  162.1726 C.ar    1  UNL1        0.0168
     18 C         141.8058  142.8804  164.7453 C.1     1  UNL1       -0.0543
     19 C         142.2436  142.0163  165.8905 C.1     1  UNL1       -0.0388
     20 C         142.6815  141.1521  167.0358 C.3     1  UNL1        0.2814
     21 O         141.8596  139.9624  167.4347 O.3     1  UNL1       -0.4612
     22 C         140.8292  139.4131  166.4933 C.ar    1  UNL1        0.1400
     23 C         139.3821  139.7615  166.6791 C.ar    1  UNL1        0.0369
     24 C         138.3515  139.2123  165.7377 C.ar    1  UNL1        0.0031
     25 C         138.7681  138.3146  164.6105 C.ar    1  UNL1        0.0002
     26 C         140.2151  137.9662  164.4246 C.ar    1  UNL1        0.0031
     27 C         141.2457  138.5155  165.3660 C.ar    1  UNL1        0.0369
     28 O         135.8427  139.7912  155.6151 O.3     1  UNL1       -0.4656
     29 C         134.4038  140.1287  155.3588 C.3     1  UNL1        0.2896
     30 C         130.9498  139.8918  157.2989 C.3     1  UNL1        0.1150
     31 N         132.0102  140.3537  156.3438 N.am    1  UNL1       -0.2730
     32 C         131.7375  141.5024  155.4186 C.3     1  UNL1        0.1150
     33 C         133.3434  139.6668  156.3139 C.2     1  UNL1        0.2703
     34 O         133.6162  138.5180  157.2390 O.2     1  UNL1       -0.2708
@<TRIPOS>BOND
     1    30    31    1
     2    31    32    1
     3    31    33   am
     4    33    34    2
     5    33    29    1
     6    29    28    1
     7    28     1    1
     8     1     2   ar
     9     2     3   ar
    10     3     4   ar
    11     4     5   ar
    12     5     6   ar
    13     5     7    1
    14     7     8    1
    15     8     9    2
    16     9    13    1
    17    13    14   ar
    18    14    15   ar
    19    15    16   ar
    20    16    18    1
    21    18    19    3
    22    19    20    1
    23    20    21    1
    24    21    22    1
    25    22    23   ar
    26    23    24   ar
    27    24    25   ar
    28    25    26   ar
    29    26    27   ar
    30    16    17   ar
    31     9    10    1
    32    10    11    2
    33    11    12    1
    34     6     1   ar
    35    12     8    1
    36    12     4    1
    37    17    13   ar
    38    27    22   ar
@<TRIPOS>MOLECULE
*****
 34 38 0 0 0
SMALL
GASTEIGER

@<TRIPOS>ATOM
      1 C         142.9655  140.4248  168.4086 C.ar    1  UNL1        0.1390
      2 C         143.2134  141.8935  168.2317 C.ar    1  UNL1        0.0366
      3 C         143.0940  142.5159  166.8721 C.ar    1  UNL1        0.0008
      4 C         142.7266  141.6695  165.6895 C.ar    1  UNL1        0.0021
      5 C         142.4787  140.2008  165.8664 C.ar    1  UNL1       -0.0168
      6 C         142.5981  139.5784  167.2259 C.ar    1  UNL1        0.0327
      7 C         142.1347  139.6239  164.5251 C.3     1  UNL1        0.0520
      8 C         142.1701  140.7361  163.5193 C.2     1  UNL1        0.0074
      9 C         141.9794  141.0670  162.0688 C.2     1  UNL1        0.0976
     10 N         142.2274  142.5357  161.8918 N.2     1  UNL1       -0.1526
     11 N         142.5713  143.1126  163.2331 N.2     1  UNL1       -0.1678
     12 C         142.5359  142.0004  164.2389 C.3     1  UNL1        0.1672
     13 C         141.6063  140.0991  160.9853 C.ar    1  UNL1        0.0265
     14 C         140.2155  139.6559  160.6395 C.ar    1  UNL1        0.0376
     15 S         140.3080  138.6873  159.4979 S.2     1  UNL1       -0.0780
     16 C         141.7560  138.5318  159.1381 C.ar    1  UNL1        0.0711
     17 C         142.5583  139.4043  160.0574 C.ar    1  UNL1        0.0168
     18 C         142.3051  137.6574  158.0502 C.1     1  UNL1       -0.0543
     19 C         142.8543  136.7830  156.9622 C.1     1  UNL1       -0.0388
     20 C         143.4035  135.9085  155.8741 C.3     1  UNL1        0.2814
     21 O         142.7145  134.6224  155.5259 O.3     1  UNL1       -0.4612
     22 C         143.4410  133.3185  155.6737 C.ar    1  UNL1        0.1400
     23 C         144.3268  133.0839  156.8613 C.ar    1  UNL1        0.0369
     24 C         145.0534  131.7800  157.0092 C.ar    1  UNL1        0.0031
     25 C         144.8942  130.7107  155.9694 C.ar    1  UNL1        0.0002
     26 C         144.0085  130.9453  154.7818 C.ar    1  UNL1        0.0031
     27 C         143.2819  132.2491  154.6339 C.ar    1  UNL1        0.0369
     28 O         143.0849  139.8024  169.7681 O.3     1  UNL1       -0.4656
     29 C         141.9466  139.8996  170.7401 C.3     1  UNL1        0.2896
     30 C         139.4983  143.0230  170.7499 C.3     1  UNL1        0.1150
     31 N         140.0867  141.6844  170.4154 N.am    1  UNL1       -0.2730
     32 C         139.4038  140.7920  169.4219 C.3     1  UNL1        0.1150
     33 C         141.3582  141.2382  171.0746 C.2     1  UNL1        0.2703
     34 O         142.0411  142.1305  172.0681 O.2     1  UNL1       -0.2708
@<TRIPOS>BOND
     1    30    31    1
     2    31    32    1
     3    31    33   am
     4    33    34    2
     5    33    29    1
     6    29    28    1
     7    28     1    1
     8     1     2   ar
     9     2     3   ar
    10     3     4   ar
    11     4     5   ar
    12     5     6   ar
    13     5     7    1
    14     7     8    1
    15     8     9    2
    16     9    13    1
    17    13    14   ar
    18    14    15   ar
    19    15    16   ar
    20    16    18    1
    21    18    19    3
    22    19    20    1
    23    20    21    1
    24    21    22    1
    25    22    23   ar
    26    23    24   ar
    27    24    25   ar
    28    25    26   ar
    29    26    27   ar
    30    16    17   ar
    31     9    10    1
    32    10    11    2
    33    11    12    1
    34     6     1   ar
    35    12     8    1
    36    12     4    1
    37    17    13   ar
    38    27    22   ar
@<TRIPOS>MOLECULE
*****
 34 38 0 0 0
SMALL
GASTEIGER

@<TRIPOS>ATOM
      1 C         139.7538  145.9627  155.4991 C.ar    1  UNL1        0.1390
      2 C         138.6157  145.4235  154.6843 C.ar    1  UNL1        0.0366
      3 C         137.9021  144.1794  155.1237 C.ar    1  UNL1        0.0008
      4 C         138.3266  143.4745  156.3777 C.ar    1  UNL1        0.0021
      5 C         139.4648  144.0136  157.1925 C.ar    1  UNL1       -0.0168
      6 C         140.1784  145.2577  156.7532 C.ar    1  UNL1        0.0327
      7 C         139.6578  143.1100  158.3742 C.3     1  UNL1        0.0520
      8 C         138.6389  142.0124  158.2897 C.2     1  UNL1        0.0074
      9 C         138.1285  140.7756  158.9677 C.2     1  UNL1        0.0976
     10 N         136.9903  140.2365  158.1529 N.2     1  UNL1       -0.1526
     11 N         136.7973  141.1401  156.9713 N.2     1  UNL1       -0.1678
     12 C         137.8162  142.2377  157.0558 C.3     1  UNL1        0.1672
     13 C         138.6625  140.1822  160.2376 C.ar    1  UNL1        0.0265
     14 C         139.9255  139.3847  160.3753 C.ar    1  UNL1        0.0376
     15 S         140.0709  138.9916  161.8156 S.2     1  UNL1       -0.0780
     16 C         138.8976  139.5462  162.5680 C.ar    1  UNL1        0.0711
     17 C         138.0272  140.2819  161.5928 C.ar    1  UNL1        0.0168
     18 C         138.6401  139.3919  164.0377 C.1     1  UNL1       -0.0543
     19 C         138.3827  139.2378  165.5073 C.1     1  UNL1       -0.0388
     20 C         138.1252  139.0836  166.9771 C.3     1  UNL1        0.2814
     21 O         139.2521  139.2334  167.9557 O.3     1  UNL1       -0.4612
     22 C         139.6304  140.5939  168.4614 C.ar    1  UNL1        0.1400
     23 C         140.2812  141.5823  167.5397 C.ar    1  UNL1        0.0369
     24 C         140.6595  142.9429  168.0453 C.ar    1  UNL1        0.0031
     25 C         140.3870  143.3151  169.4726 C.ar    1  UNL1        0.0002
     26 C         139.7362  142.3267  170.3943 C.ar    1  UNL1        0.0031
     27 C         139.3579  140.9661  169.8887 C.ar    1  UNL1        0.0369
     28 O         140.4674  147.2068  155.0598 O.3     1  UNL1       -0.4656
     29 C         139.7360  148.2520  154.2709 C.3     1  UNL1        0.2896
     30 C         138.6797  151.9975  155.0492 C.3     1  UNL1        0.1150
     31 N         139.2670  150.8061  154.3522 N.am    1  UNL1       -0.2730
     32 C         139.9725  150.9775  153.0397 C.3     1  UNL1        0.1150
     33 C         139.1487  149.4434  154.9679 C.2     1  UNL1        0.2703
     34 O         138.4433  149.2720  156.2805 O.2     1  UNL1       -0.2708
@<TRIPOS>BOND
     1    30    31    1
     2    31    32    1
     3    31    33   am
     4    33    34    2
     5    33    29    1
     6    29    28    1
     7    28     1    1
     8     1     2   ar
     9     2     3   ar
    10     3     4   ar
    11     4     5   ar
    12     5     6   ar
    13     5     7    1
    14     7     8    1
    15     8     9    2
    16     9    13    1
    17    13    14   ar
    18    14    15   ar
    19    15    16   ar
    20    16    18    1
    21    18    19    3
    22    19    20    1
    23    20    21    1
    24    21    22    1
    25    22    23   ar
    26    23    24   ar
    27    24    25   ar
    28    25    26   ar
    29    26    27   ar
    30    16    17   ar
    31     9    10    1
    32    10    11    2
    33    11    12    1
    34     6     1   ar
    35    12     8    1
    36    12     4    1
    37    17    13   ar
    38    27    22   ar
@<TRIPOS>MOLECULE
*****
 34 38 0 0 0
SMALL
GASTEIGER

@<TRIPOS>ATOM
      1 C         140.1628  142.8643  166.1629 C.ar    1  UNL1        0.1390
      2 C         139.4078  144.1454  165.9661 C.ar    1  UNL1        0.0366
      3 C         139.2630  144.7270  164.5911 C.ar    1  UNL1        0.0008
      4 C         139.8733  144.0276  163.4128 C.ar    1  UNL1        0.0021
      5 C         140.6284  142.7465  163.6096 C.ar    1  UNL1       -0.0168
      6 C         140.7731  142.1649  164.9847 C.ar    1  UNL1        0.0327
      7 C         141.1174  142.2859  162.2684 C.3     1  UNL1        0.0520
      8 C         140.6645  143.2823  161.2427 C.2     1  UNL1        0.0074
      9 C         140.6868  143.6136  159.7800 C.2     1  UNL1        0.0976
     10 N         139.9318  144.8946  159.5832 N.2     1  UNL1       -0.1526
     11 N         139.4428  145.3552  160.9243 N.2     1  UNL1       -0.1678
     12 C         139.8957  144.3587  161.9500 C.3     1  UNL1        0.1672
     13 C         141.3481  142.8055  158.7030 C.ar    1  UNL1        0.0265
     14 C         142.0008  143.3501  157.4671 C.ar    1  UNL1        0.0376
     15 S         142.5289  142.1922  156.6731 S.2     1  UNL1       -0.0780
     16 C         142.2026  140.9319  157.4184 C.ar    1  UNL1        0.0711
     17 C         141.4728  141.3110  158.6729 C.ar    1  UNL1        0.0168
     18 C         142.5458  139.5375  156.9851 C.1     1  UNL1       -0.0543
     19 C         142.8889  138.1431  156.5519 C.1     1  UNL1       -0.0388
     20 C         143.2321  136.7485  156.1186 C.3     1  UNL1        0.2814
     21 O         143.1187  135.6118  157.0907 O.3     1  UNL1       -0.4612
     22 C         142.7649  134.2389  156.6011 C.ar    1  UNL1        0.1400
     23 C         143.4525  133.0368  157.1775 C.ar    1  UNL1        0.0369
     24 C         143.0988  131.6638  156.6880 C.ar    1  UNL1        0.0031
     25 C         142.0573  131.4928  155.6221 C.ar    1  UNL1        0.0002
     26 C         141.3696  132.6949  155.0458 C.ar    1  UNL1        0.0031
     27 C         141.7234  134.0679  155.5353 C.ar    1  UNL1        0.0369
     28 O         140.3075  142.2827  167.5380 O.3     1  UNL1       -0.4656
     29 C         139.9210  140.8561  167.7934 C.3     1  UNL1        0.2896
     30 C         142.5296  138.8510  170.0126 C.3     1  UNL1        0.1150
     31 N         141.9282  139.5958  168.8578 N.am    1  UNL1       -0.2730
     32 C         142.7325  139.8251  167.6126 C.3     1  UNL1        0.1150
     33 C         140.5224  140.1113  168.9482 C.2     1  UNL1        0.2703
     34 O         139.7181  139.8821  170.1934 O.2     1  UNL1       -0.2708
@<TRIPOS>BOND
     1    30    31    1
     2    31    32    1
     3    31    33   am
     4    33    34    2
     5    33    29    1
     6    29    28    1
     7    28     1    1
     8     1     2   ar
     9     2     3   ar
    10     3     4   ar
    11     4     5   ar
    12     5     6   ar
    13     5     7    1
    14     7     8    1
    15     8     9    2
    16     9    13    1
    17    13    14   ar
    18    14    15   ar
    19    15    16   ar
    20    16    18    1
    21    18    19    3
    22    19    20    1
    23    20    21    1
    24    21    22    1
    25    22    23   ar
    26    23    24   ar
    27    24    25   ar
    28    25    26   ar
    29    26    27   ar
    30    16    17   ar
    31     9    10    1
    32    10    11    2
    33    11    12    1
    34     6     1   ar
    35    12     8    1
    36    12     4    1
    37    17    13   ar
    38    27    22   ar
@<TRIPOS>MOLECULE
*****
 34 38 0 0 0
SMALL
GASTEIGER

@<TRIPOS>ATOM
      1 C         139.6503  143.4384  165.4997 C.ar    1  UNL1        0.1390
      2 C         138.5564  144.2437  164.8636 C.ar    1  UNL1        0.0366
      3 C         138.2339  144.0552  163.4108 C.ar    1  UNL1        0.0008
      4 C         139.0055  143.0613  162.5941 C.ar    1  UNL1        0.0021
      5 C         140.0994  142.2560  163.2303 C.ar    1  UNL1       -0.0168
      6 C         140.4218  142.4445  164.6830 C.ar    1  UNL1        0.0327
      7 C         140.6842  141.3579  162.1807 C.3     1  UNL1        0.0520
      8 C         139.9516  141.6082  160.8959 C.2     1  UNL1        0.0074
      9 C         139.8601  141.2079  159.4533 C.2     1  UNL1        0.0976
     10 N         138.7661  142.0132  158.8172 N.2     1  UNL1       -0.1526
     11 N         138.1815  142.9113  159.8667 N.2     1  UNL1       -0.1678
     12 C         138.9141  142.6610  161.1515 C.3     1  UNL1        0.1672
     13 C         140.7129  140.1822  158.7672 C.ar    1  UNL1        0.0265
     14 C         142.2112  140.1171  158.7992 C.ar    1  UNL1        0.0376
     15 S         142.6415  138.9362  157.9804 S.2     1  UNL1       -0.0780
     16 C         141.4091  138.2716  157.4422 C.ar    1  UNL1        0.0711
     17 C         140.2172  139.0416  157.9284 C.ar    1  UNL1        0.0168
     18 C         141.3747  137.0512  156.5708 C.1     1  UNL1       -0.0543
     19 C         141.3405  135.8307  155.6995 C.1     1  UNL1       -0.0388
     20 C         141.3062  134.6102  154.8280 C.3     1  UNL1        0.2814
     21 O         141.4482  133.2478  155.4395 O.3     1  UNL1       -0.4612
     22 C         142.7470  132.8403  156.0695 C.ar    1  UNL1        0.1400
     23 C         143.5721  131.7517  155.4499 C.ar    1  UNL1        0.0369
     24 C         144.8710  131.3441  156.0798 C.ar    1  UNL1        0.0031
     25 C         145.3447  132.0252  157.3295 C.ar    1  UNL1        0.0002
     26 C         144.5196  133.1139  157.9492 C.ar    1  UNL1        0.0031
     27 C         143.2208  133.5214  157.3192 C.ar    1  UNL1        0.0369
     28 O         139.9727  143.6269  166.9524 O.3     1  UNL1       -0.4656
     29 C         140.5960  142.5083  167.7336 C.3     1  UNL1        0.2896
     30 C         141.8450  141.7599  171.4255 C.3     1  UNL1        0.1150
     31 N         141.5210  141.5708  169.9732 N.am    1  UNL1       -0.2730
     32 C         141.7982  140.2553  169.3080 C.3     1  UNL1        0.1150
     33 C         140.9199  142.6974  169.1860 C.2     1  UNL1        0.2703
     34 O         140.6428  144.0129  169.8512 O.2     1  UNL1       -0.2708
@<TRIPOS>BOND
     1    30    31    1
     2    31    32    1
     3    31    33   am
     4    33    34    2
     5    33    29    1
     6    29    28    1
     7    28     1    1
     8     1     2   ar
     9     2     3   ar
    10     3     4   ar
    11     4     5   ar
    12     5     6   ar
    13     5     7    1
    14     7     8    1
    15     8     9    2
    16     9    13    1
    17    13    14   ar
    18    14    15   ar
    19    15    16   ar
    20    16    18    1
    21    18    19    3
    22    19    20    1
    23    20    21    1
    24    21    22    1
    25    22    23   ar
    26    23    24   ar
    27    24    25   ar
    28    25    26   ar
    29    26    27   ar
    30    16    17   ar
    31     9    10    1
    32    10    11    2
    33    11    12    1
    34     6     1   ar
    35    12     8    1
    36    12     4    1
    37    17    13   ar
    38    27    22   ar
@<TRIPOS>MOLECULE
*****
 34 38 0 0 0
SMALL
GASTEIGER

@<TRIPOS>ATOM
      1 C         139.9219  145.9118  155.8176 C.ar    1  UNL1        0.1390
      2 C         139.0237  144.8264  155.3029 C.ar    1  UNL1        0.0366
      3 C         138.6608  143.6707  156.1877 C.ar    1  UNL1        0.0008
      4 C         139.1960  143.6006  157.5872 C.ar    1  UNL1        0.0021
      5 C         140.0941  144.6861  158.1019 C.ar    1  UNL1       -0.0168
      6 C         140.4571  145.8417  157.2171 C.ar    1  UNL1        0.0327
      7 C         140.4663  144.3485  159.5153 C.3     1  UNL1        0.0520
      8 C         139.7981  143.0544  159.8741 C.2     1  UNL1        0.0074
      9 C         139.6152  142.0459  160.9692 C.2     1  UNL1        0.0976
     10 N         138.7170  140.9604  160.4545 N.2     1  UNL1       -0.1526
     11 N         138.3449  141.2980  159.0412 N.2     1  UNL1       -0.1678
     12 C         139.0130  142.5922  158.6824 C.3     1  UNL1        0.1672
     13 C         140.2235  142.1114  162.3387 C.ar    1  UNL1        0.0265
     14 C         140.4664  143.3581  163.1369 C.ar    1  UNL1        0.0376
     15 S         141.0889  142.9590  164.4420 S.2     1  UNL1       -0.0780
     16 C         141.2307  141.4656  164.4504 C.ar    1  UNL1        0.0711
     17 C         140.6959  140.9419  163.1505 C.ar    1  UNL1        0.0168
     18 C         141.8063  140.6410  165.5633 C.1     1  UNL1       -0.0543
     19 C         142.3819  139.8164  166.6763 C.1     1  UNL1       -0.0388
     20 C         142.9575  138.9918  167.7894 C.3     1  UNL1        0.2814
     21 O         142.7845  139.4292  169.2137 O.3     1  UNL1       -0.4612
     22 C         141.9629  140.6435  169.5307 C.ar    1  UNL1        0.1400
     23 C         140.4888  140.5091  169.7734 C.ar    1  UNL1        0.0369
     24 C         139.6671  141.7233  170.0905 C.ar    1  UNL1        0.0031
     25 C         140.3196  143.0719  170.1649 C.ar    1  UNL1        0.0002
     26 C         141.7937  143.2063  169.9222 C.ar    1  UNL1        0.0031
     27 C         142.6154  141.9921  169.6051 C.ar    1  UNL1        0.0369
     28 O         140.2849  147.0675  154.9329 O.3     1  UNL1       -0.4656
     29 C         139.2377  148.0648  154.5344 C.3     1  UNL1        0.2896
     30 C         138.7528  151.8021  155.7782 C.3     1  UNL1        0.1150
     31 N         139.0511  150.6318  154.8886 N.am    1  UNL1       -0.2730
     32 C         139.4610  150.8583  153.4636 C.3     1  UNL1        0.1150
     33 C         138.9394  149.2351  155.4240 C.2     1  UNL1        0.2703
     34 O         138.5295  149.0086  156.8490 O.2     1  UNL1       -0.2708
@<TRIPOS>BOND
     1    30    31    1
     2    31    32    1
     3    31    33   am
     4    33    34    2
     5    33    29    1
     6    29    28    1
     7    28     1    1
     8     1     2   ar
     9     2     3   ar
    10     3     4   ar
    11     4     5   ar
    12     5     6   ar
    13     5     7    1
    14     7     8    1
    15     8     9    2
    16     9    13    1
    17    13    14   ar
    18    14    15   ar
    19    15    16   ar
    20    16    18    1
    21    18    19    3
    22    19    20    1
    23    20    21    1
    24    21    22    1
    25    22    23   ar
    26    23    24   ar
    27    24    25   ar
    28    25    26   ar
    29    26    27   ar
    30    16    17   ar
    31     9    10    1
    32    10    11    2
    33    11    12    1
    34     6     1   ar
    35    12     8    1
    36    12     4    1
    37    17    13   ar
    38    27    22   ar
@<TRIPOS>MOLECULE
*****
 34 38 0 0 0
SMALL
GASTEIGER

@<TRIPOS>ATOM
      1 C         142.9922  134.7176  155.9336 C.ar    1  UNL1        0.1390
      2 C         141.8945  134.5961  154.9185 C.ar    1  UNL1        0.0366
      3 C         140.7615  135.5790  154.9178 C.ar    1  UNL1        0.0008
      4 C         140.7261  136.6835  155.9321 C.ar    1  UNL1        0.0021
      5 C         141.8237  136.8050  156.9471 C.ar    1  UNL1       -0.0168
      6 C         142.9568  135.8221  156.9479 C.ar    1  UNL1        0.0327
      7 C         141.5213  137.9889  157.8174 C.3     1  UNL1        0.0520
      8 C         140.2368  138.5989  157.3401 C.2     1  UNL1        0.0074
      9 C         139.2560  139.7075  157.5829 C.2     1  UNL1        0.0976
     10 N         138.1583  139.5859  156.5679 N.2     1  UNL1       -0.1526
     11 N         138.4608  138.4022  155.6977 N.2     1  UNL1       -0.1678
     12 C         139.7453  137.7921  156.1749 C.3     1  UNL1        0.1672
     13 C         139.3554  140.7539  158.6530 C.ar    1  UNL1        0.0265
     14 C         139.0394  142.2116  158.4928 C.ar    1  UNL1        0.0376
     15 S         139.2770  142.8851  159.8119 S.2     1  UNL1       -0.0780
     16 C         139.7398  141.8436  160.7873 C.ar    1  UNL1        0.0711
     17 C         139.7882  140.5266  160.0711 C.ar    1  UNL1        0.0168
     18 C         140.0922  142.0782  162.2263 C.1     1  UNL1       -0.0543
     19 C         140.4447  142.3129  163.6653 C.1     1  UNL1       -0.0388
     20 C         140.7971  142.5475  165.1044 C.3     1  UNL1        0.2814
     21 O         140.9830  141.3824  166.0306 O.3     1  UNL1       -0.4612
     22 C         140.2720  140.0894  165.7612 C.ar    1  UNL1        0.1400
     23 C         140.9581  139.0037  164.9862 C.ar    1  UNL1        0.0369
     24 C         140.2472  137.7106  164.7167 C.ar    1  UNL1        0.0031
     25 C         138.8503  137.5032  165.2223 C.ar    1  UNL1        0.0002
     26 C         138.1643  138.5889  165.9973 C.ar    1  UNL1        0.0031
     27 C         138.8751  139.8820  166.2667 C.ar    1  UNL1        0.0369
     28 O         144.1252  133.7347  155.9344 O.3     1  UNL1       -0.4656
     29 C         143.8514  132.2747  156.1424 C.3     1  UNL1        0.2896
     30 C         144.7554  129.3925  158.7164 C.3     1  UNL1        0.1150
     31 N         144.1315  130.1152  157.5596 N.am    1  UNL1       -0.2730
     32 C         143.1636  129.4014  156.6631 C.3     1  UNL1        0.1150
     33 C         144.4754  131.5519  157.2992 C.2     1  UNL1        0.2703
     34 O         145.4432  132.2658  158.1957 O.2     1  UNL1       -0.2708
@<TRIPOS>BOND
     1    30    31    1
     2    31    32    1
     3    31    33   am
     4    33    34    2
     5    33    29    1
     6    29    28    1
     7    28     1    1
     8     1     2   ar
     9     2     3   ar
    10     3     4   ar
    11     4     5   ar
    12     5     6   ar
    13     5     7    1
    14     7     8    1
    15     8     9    2
    16     9    13    1
    17    13    14   ar
    18    14    15   ar
    19    15    16   ar
    20    16    18    1
    21    18    19    3
    22    19    20    1
    23    20    21    1
    24    21    22    1
    25    22    23   ar
    26    23    24   ar
    27    24    25   ar
    28    25    26   ar
    29    26    27   ar
    30    16    17   ar
    31     9    10    1
    32    10    11    2
    33    11    12    1
    34     6     1   ar
    35    12     8    1
    36    12     4    1
    37    17    13   ar
    38    27    22   ar
