@<TRIPOS>MOLECULE
*****
 32 34 0 0 0
SMALL
GASTEIGER

@<TRIPOS>ATOM
      1 C         139.9375  145.8037  156.6242 C.2     1  UNL1        0.2571
      2 O         139.1814  144.5128  156.5154 O.2     1  UNL1       -0.2695
      3 N         140.5108  146.2282  157.9437 N.am    1  UNL1       -0.2357
      4 C         140.3280  145.3618  159.1545 C.2     1  UNL1        0.3104
      5 O         139.5719  144.0708  159.0457 O.2     1  UNL1       -0.2521
      6 N         140.9013  145.7863  160.4740 N.am    1  UNL1       -0.2680
      7 H         141.0070  147.0755  158.0151 H       1  UNL1        0.1594
      8 H         141.3975  146.6335  160.5454 H       1  UNL1        0.1564
      9 C         139.4817  148.0263  155.3584 C.ar    1  UNL1        0.1461
     10 C         139.6645  148.8927  154.1477 C.ar    1  UNL1        0.0577
     11 C         140.4859  148.4030  152.9921 C.ar    1  UNL1        0.1020
     12 N         141.1245  147.0469  153.0471 N.ar    1  UNL1       -0.2420
     13 C         140.9417  146.1805  154.2578 C.ar    1  UNL1        0.1064
     14 C         140.1203  146.6702  155.4135 C.ar    1  UNL1        0.1068
     15 C         138.2870  149.9658  156.6078 C.3     1  UNL1        0.2525
     16 O         138.6603  148.5161  156.5140 O.3     1  UNL1       -0.4712
     17 C         140.7185  144.9198  161.6847 C.ar    1  UNL1        0.0515
     18 C         141.7367  143.8693  162.0159 C.ar    1  UNL1        0.0147
     19 C         141.5540  143.0028  163.2266 C.ar    1  UNL1        0.0012
     20 C         140.3529  143.1868  164.1061 C.ar    1  UNL1        0.0040
     21 C         139.3347  144.2373  163.7749 C.ar    1  UNL1        0.0727
     22 C         139.5174  145.1037  162.5643 C.ar    1  UNL1        0.0186
     23 C         140.1701  142.3203  165.3168 C.ar    1  UNL1       -0.0000
     24 C         139.4632  141.0029  165.1964 C.ar    1  UNL1       -0.0000
     25 C         139.2803  140.1364  166.4070 C.ar    1  UNL1       -0.0000
     26 C         139.8045  140.5874  167.7381 C.ar    1  UNL1       -0.0000
     27 C         140.5114  141.9048  167.8586 C.ar    1  UNL1       -0.0000
     28 C         140.6942  142.7713  166.6479 C.ar    1  UNL1       -0.0000
     29 C         138.1336  144.4212  164.6545 C.3     1  UNL1        0.4186
     30 F         136.9325  144.6052  165.5340 F       1  UNL1       -0.1659
     31 F         137.3680  143.4431  163.8137 F       1  UNL1       -0.1659
     32 F         138.8991  145.3994  165.4954 F       1  UNL1       -0.1659
@<TRIPOS>BOND
     1    15    16    1
     2    16     9    1
     3     9    10   ar
     4    10    11   ar
     5    11    12   ar
     6    12    13   ar
     7    13    14   ar
     8    14     1    1
     9     1     2    2
    10     1     3   am
    11     3     4   am
    12     4     5    2
    13     4     6   am
    14     6    17    1
    15    17    18   ar
    16    18    19   ar
    17    19    20   ar
    18    20    23    1
    19    23    24   ar
    20    24    25   ar
    21    25    26   ar
    22    26    27   ar
    23    27    28   ar
    24    20    21   ar
    25    21    29    1
    26    29    30    1
    27    29    31    1
    28    29    32    1
    29    21    22   ar
    30    14     9   ar
    31    22    17   ar
    32    28    23   ar
    33     3     7    1
    34     6     8    1
@<TRIPOS>MOLECULE
*****
 32 34 0 0 0
SMALL
GASTEIGER

@<TRIPOS>ATOM
      1 C         137.6629  140.9373  157.1082 C.2     1  UNL1        0.2571
      2 O         138.9010  141.7701  157.2609 O.2     1  UNL1       -0.2695
      3 N         137.0913  140.2188  158.2943 N.am    1  UNL1       -0.2357
      4 C         137.7577  140.3332  159.6332 C.2     1  UNL1        0.3104
      5 O         138.9959  141.1661  159.7860 O.2     1  UNL1       -0.2521
      6 N         137.1861  139.6147  160.8194 N.am    1  UNL1       -0.2680
      7 H         136.2787  139.6721  158.1941 H       1  UNL1        0.1594
      8 H         136.3735  139.0681  160.7192 H       1  UNL1        0.1564
      9 C         135.5554  140.4156  155.6811 C.ar    1  UNL1        0.1461
     10 C         134.8889  140.3012  154.3422 C.ar    1  UNL1        0.0577
     11 C         135.6634  140.5939  153.0914 C.ar    1  UNL1        0.1020
     12 N         137.1044  141.0011  153.1795 N.ar    1  UNL1       -0.2420
     13 C         137.7708  141.1155  154.5184 C.ar    1  UNL1        0.1064
     14 C         136.9964  140.8228  155.7692 C.ar    1  UNL1        0.1068
     15 C         133.3068  139.8559  156.8561 C.3     1  UNL1        0.2525
     16 O         134.7809  140.1229  156.9319 O.3     1  UNL1       -0.4712
     17 C         137.8527  139.7292  162.1584 C.ar    1  UNL1        0.0515
     18 C         137.6178  140.9400  163.0120 C.ar    1  UNL1        0.0147
     19 C         138.2843  141.0545  164.3509 C.ar    1  UNL1        0.0012
     20 C         139.1856  139.9582  164.8361 C.ar    1  UNL1        0.0040
     21 C         139.4205  138.7473  163.9825 C.ar    1  UNL1        0.0727
     22 C         138.7540  138.6328  162.6436 C.ar    1  UNL1        0.0186
     23 C         139.8522  140.0726  166.1751 C.ar    1  UNL1       -0.0000
     24 C         141.3006  140.4527  166.2617 C.ar    1  UNL1       -0.0000
     25 C         141.9672  140.5672  167.6006 C.ar    1  UNL1       -0.0000
     26 C         141.1853  140.3015  168.8528 C.ar    1  UNL1       -0.0000
     27 C         139.7368  139.9215  168.7661 C.ar    1  UNL1       -0.0000
     28 C         139.0703  139.8070  167.4273 C.ar    1  UNL1       -0.0000
     29 C         140.3218  137.6509  164.4679 C.3     1  UNL1        0.4186
     30 F         141.2232  136.5545  164.9531 F       1  UNL1       -0.1659
     31 F         141.4633  138.2499  163.7009 F       1  UNL1       -0.1659
     32 F         139.1804  137.0519  165.2348 F       1  UNL1       -0.1659
@<TRIPOS>BOND
     1    15    16    1
     2    16     9    1
     3     9    10   ar
     4    10    11   ar
     5    11    12   ar
     6    12    13   ar
     7    13    14   ar
     8    14     1    1
     9     1     2    2
    10     1     3   am
    11     3     4   am
    12     4     5    2
    13     4     6   am
    14     6    17    1
    15    17    18   ar
    16    18    19   ar
    17    19    20   ar
    18    20    23    1
    19    23    24   ar
    20    24    25   ar
    21    25    26   ar
    22    26    27   ar
    23    27    28   ar
    24    20    21   ar
    25    21    29    1
    26    29    30    1
    27    29    31    1
    28    29    32    1
    29    21    22   ar
    30    14     9   ar
    31    22    17   ar
    32    28    23   ar
    33     3     7    1
    34     6     8    1
@<TRIPOS>MOLECULE
*****
 32 34 0 0 0
SMALL
GASTEIGER

@<TRIPOS>ATOM
      1 C         139.1396  142.9007  158.3406 C.2     1  UNL1        0.2571
      2 O         140.5487  142.3887  158.3863 O.2     1  UNL1       -0.2695
      3 N         138.3080  142.9205  159.5888 N.am    1  UNL1       -0.2357
      4 C         138.8855  142.4283  160.8827 C.2     1  UNL1        0.3104
      5 O         140.2947  141.9163  160.9284 O.2     1  UNL1       -0.2521
      6 N         138.0538  142.4481  162.1309 N.am    1  UNL1       -0.2680
      7 H         137.3831  143.2565  159.5588 H       1  UNL1        0.1594
      8 H         137.1289  142.7841  162.1009 H       1  UNL1        0.1564
      9 C         137.4224  142.6575  156.4061 C.ar    1  UNL1        0.1461
     10 C         136.8449  143.1498  155.1123 C.ar    1  UNL1        0.0577
     11 C         137.4070  144.3775  154.4590 C.ar    1  UNL1        0.1020
     12 N         138.5466  145.1130  155.0996 N.ar    1  UNL1       -0.2420
     13 C         139.1241  144.6207  156.3934 C.ar    1  UNL1        0.1064
     14 C         138.5620  143.3930  157.0467 C.ar    1  UNL1        0.1068
     15 C         135.6736  140.7369  156.4583 C.3     1  UNL1        0.2525
     16 O         136.8604  141.4298  157.0594 O.3     1  UNL1       -0.4712
     17 C         138.6314  141.9558  163.4248 C.ar    1  UNL1        0.0515
     18 C         139.4731  142.8690  164.2660 C.ar    1  UNL1        0.0147
     19 C         140.0507  142.3768  165.5598 C.ar    1  UNL1        0.0012
     20 C         139.7865  140.9714  166.0125 C.ar    1  UNL1        0.0040
     21 C         138.9448  140.0582  165.1714 C.ar    1  UNL1        0.0727
     22 C         138.3672  140.5504  163.8775 C.ar    1  UNL1        0.0186
     23 C         140.3641  140.4792  167.3065 C.ar    1  UNL1       -0.0000
     24 C         139.5750  140.6047  168.5759 C.ar    1  UNL1       -0.0000
     25 C         140.1525  140.1125  169.8698 C.ar    1  UNL1       -0.0000
     26 C         141.5191  139.4948  169.8942 C.ar    1  UNL1       -0.0000
     27 C         142.3083  139.3692  168.6248 C.ar    1  UNL1       -0.0000
     28 C         141.7308  139.8615  167.3309 C.ar    1  UNL1       -0.0000
     29 C         138.6807  138.6527  165.6242 C.3     1  UNL1        0.4186
     30 F         138.4165  137.2474  166.0770 F       1  UNL1       -0.1659
     31 F         137.4653  139.1209  166.3682 F       1  UNL1       -0.1659
     32 F         139.8960  138.1846  164.8801 F       1  UNL1       -0.1659
@<TRIPOS>BOND
     1    15    16    1
     2    16     9    1
     3     9    10   ar
     4    10    11   ar
     5    11    12   ar
     6    12    13   ar
     7    13    14   ar
     8    14     1    1
     9     1     2    2
    10     1     3   am
    11     3     4   am
    12     4     5    2
    13     4     6   am
    14     6    17    1
    15    17    18   ar
    16    18    19   ar
    17    19    20   ar
    18    20    23    1
    19    23    24   ar
    20    24    25   ar
    21    25    26   ar
    22    26    27   ar
    23    27    28   ar
    24    20    21   ar
    25    21    29    1
    26    29    30    1
    27    29    31    1
    28    29    32    1
    29    21    22   ar
    30    14     9   ar
    31    22    17   ar
    32    28    23   ar
    33     3     7    1
    34     6     8    1
@<TRIPOS>MOLECULE
*****
 32 34 0 0 0
SMALL
GASTEIGER

@<TRIPOS>ATOM
      1 C         138.8527  142.5002  158.4406 C.2     1  UNL1        0.2571
      2 O         140.1646  141.7731  158.4419 O.2     1  UNL1       -0.2695
      3 N         138.1223  142.7319  159.7301 N.am    1  UNL1       -0.2357
      4 C         138.7038  142.2365  161.0209 C.2     1  UNL1        0.3104
      5 O         140.0158  141.5093  161.0223 O.2     1  UNL1       -0.2521
      6 N         137.9734  142.4682  162.3104 N.am    1  UNL1       -0.2680
      7 H         137.2612  143.2092  159.7292 H       1  UNL1        0.1594
      8 H         137.1123  142.9455  162.3096 H       1  UNL1        0.1564
      9 C         138.9309  144.1242  156.4141 C.ar    1  UNL1        0.1461
     10 C         138.3493  144.6197  155.1233 C.ar    1  UNL1        0.0577
     11 C         137.1079  143.9866  154.5681 C.ar    1  UNL1        0.1020
     12 N         136.4482  142.8581  155.3036 N.ar    1  UNL1       -0.2420
     13 C         137.0298  142.3626  156.5945 C.ar    1  UNL1        0.1064
     14 C         138.2711  142.9957  157.1497 C.ar    1  UNL1        0.1068
     15 C         140.1557  146.1966  157.3915 C.3     1  UNL1        0.2525
     16 O         140.1722  144.7573  156.9693 O.3     1  UNL1       -0.4712
     17 C         138.5550  141.9727  163.6013 C.ar    1  UNL1        0.0515
     18 C         139.3556  142.8992  164.4677 C.ar    1  UNL1        0.0147
     19 C         139.9372  142.4038  165.7586 C.ar    1  UNL1        0.0012
     20 C         139.7181  140.9819  166.1830 C.ar    1  UNL1        0.0040
     21 C         138.9175  140.0554  165.3166 C.ar    1  UNL1        0.0727
     22 C         138.3359  140.5508  164.0258 C.ar    1  UNL1        0.0186
     23 C         140.2997  140.4864  167.4739 C.ar    1  UNL1       -0.0000
     24 C         141.7092  139.9748  167.5140 C.ar    1  UNL1       -0.0000
     25 C         142.2908  139.4793  168.8048 C.ar    1  UNL1       -0.0000
     26 C         141.4629  139.4954  170.0555 C.ar    1  UNL1       -0.0000
     27 C         140.0534  140.0070  170.0154 C.ar    1  UNL1       -0.0000
     28 C         139.4718  140.5025  168.7246 C.ar    1  UNL1       -0.0000
     29 C         138.6984  138.6334  165.7411 C.3     1  UNL1        0.4186
     30 F         138.4795  137.2115  166.1655 F       1  UNL1       -0.1659
     31 F         139.9431  138.2238  165.0110 F       1  UNL1       -0.1659
     32 F         137.4538  139.0431  166.4711 F       1  UNL1       -0.1659
@<TRIPOS>BOND
     1    15    16    1
     2    16     9    1
     3     9    10   ar
     4    10    11   ar
     5    11    12   ar
     6    12    13   ar
     7    13    14   ar
     8    14     1    1
     9     1     2    2
    10     1     3   am
    11     3     4   am
    12     4     5    2
    13     4     6   am
    14     6    17    1
    15    17    18   ar
    16    18    19   ar
    17    19    20   ar
    18    20    23    1
    19    23    24   ar
    20    24    25   ar
    21    25    26   ar
    22    26    27   ar
    23    27    28   ar
    24    20    21   ar
    25    21    29    1
    26    29    30    1
    27    29    31    1
    28    29    32    1
    29    21    22   ar
    30    14     9   ar
    31    22    17   ar
    32    28    23   ar
    33     3     7    1
    34     6     8    1
@<TRIPOS>MOLECULE
*****
 32 34 0 0 0
SMALL
GASTEIGER

@<TRIPOS>ATOM
      1 C         140.1918  145.2790  157.7905 C.2     1  UNL1        0.2571
      2 O         139.4853  143.9564  157.8258 O.2     1  UNL1       -0.2695
      3 N         141.0181  145.7195  158.9623 N.am    1  UNL1       -0.2357
      4 C         141.1379  144.8374  160.1695 C.2     1  UNL1        0.3104
      5 O         140.4313  143.5146  160.2049 O.2     1  UNL1       -0.2521
      6 N         141.9642  145.2778  161.3413 N.am    1  UNL1       -0.2680
      7 H         141.4819  146.5877  158.9391 H       1  UNL1        0.1594
      8 H         142.4279  146.1460  161.3181 H       1  UNL1        0.1564
      9 C         140.8720  145.8588  155.3509 C.ar    1  UNL1        0.1461
     10 C         140.7522  146.7410  154.1438 C.ar    1  UNL1        0.0577
     11 C         139.8325  147.9258  154.1689 C.ar    1  UNL1        0.1020
     12 N         139.0327  148.2283  155.4012 N.ar    1  UNL1       -0.2420
     13 C         139.1524  147.3460  156.6084 C.ar    1  UNL1        0.1064
     14 C         140.0721  146.1613  156.5832 C.ar    1  UNL1        0.1068
     15 C         143.0351  144.7075  154.4876 C.3     1  UNL1        0.2525
     16 O         141.7916  144.6741  155.3258 O.3     1  UNL1       -0.4712
     17 C         142.0839  144.3956  162.5486 C.ar    1  UNL1        0.0515
     18 C         140.9883  144.3732  163.5728 C.ar    1  UNL1        0.0147
     19 C         141.1080  143.4910  164.7800 C.ar    1  UNL1        0.0012
     20 C         142.3233  142.6312  164.9629 C.ar    1  UNL1        0.0040
     21 C         143.4190  142.6536  163.9387 C.ar    1  UNL1        0.0727
     22 C         143.2993  143.5358  162.7316 C.ar    1  UNL1        0.0186
     23 C         142.4431  141.7489  166.1702 C.ar    1  UNL1       -0.0000
     24 C         142.0847  140.2955  166.0754 C.ar    1  UNL1       -0.0000
     25 C         142.2044  139.4132  167.2826 C.ar    1  UNL1       -0.0000
     26 C         142.6825  139.9844  168.5845 C.ar    1  UNL1       -0.0000
     27 C         143.0409  141.4379  168.6793 C.ar    1  UNL1       -0.0000
     28 C         142.9212  142.3202  167.4721 C.ar    1  UNL1       -0.0000
     29 C         144.6344  141.7937  164.1218 C.3     1  UNL1        0.4186
     30 F         145.8498  140.9338  164.3048 F       1  UNL1       -0.1659
     31 F         143.9777  140.6981  163.3354 F       1  UNL1       -0.1659
     32 F         145.2911  142.8892  164.9082 F       1  UNL1       -0.1659
@<TRIPOS>BOND
     1    15    16    1
     2    16     9    1
     3     9    10   ar
     4    10    11   ar
     5    11    12   ar
     6    12    13   ar
     7    13    14   ar
     8    14     1    1
     9     1     2    2
    10     1     3   am
    11     3     4   am
    12     4     5    2
    13     4     6   am
    14     6    17    1
    15    17    18   ar
    16    18    19   ar
    17    19    20   ar
    18    20    23    1
    19    23    24   ar
    20    24    25   ar
    21    25    26   ar
    22    26    27   ar
    23    27    28   ar
    24    20    21   ar
    25    21    29    1
    26    29    30    1
    27    29    31    1
    28    29    32    1
    29    21    22   ar
    30    14     9   ar
    31    22    17   ar
    32    28    23   ar
    33     3     7    1
    34     6     8    1
@<TRIPOS>MOLECULE
*****
 32 34 0 0 0
SMALL
GASTEIGER

@<TRIPOS>ATOM
      1 C         140.4891  144.8894  159.0314 C.2     1  UNL1        0.2571
      2 O         141.8369  145.4316  159.4048 O.2     1  UNL1       -0.2695
      3 N         139.7396  144.0155  159.9930 N.am    1  UNL1       -0.2357
      4 C         140.3379  143.6838  161.3279 C.2     1  UNL1        0.3104
      5 O         141.6858  144.2260  161.7013 O.2     1  UNL1       -0.2521
      6 N         139.5885  142.8099  162.2894 N.am    1  UNL1       -0.2680
      7 H         138.8550  143.6596  159.7479 H       1  UNL1        0.1594
      8 H         138.7038  142.4540  162.0443 H       1  UNL1        0.1564
      9 C         139.4114  144.1218  156.7955 C.ar    1  UNL1        0.1461
     10 C         138.8131  144.4536  155.4606 C.ar    1  UNL1        0.0577
     11 C         138.6941  145.8845  155.0267 C.ar    1  UNL1        0.1020
     12 N         139.1735  146.9837  155.9277 N.ar    1  UNL1       -0.2420
     13 C         139.7718  146.6520  157.2626 C.ar    1  UNL1        0.1064
     14 C         139.8908  145.2211  157.6965 C.ar    1  UNL1        0.1068
     15 C         139.5490  141.5956  156.2047 C.3     1  UNL1        0.2525
     16 O         139.5304  142.6909  157.2294 O.3     1  UNL1       -0.4712
     17 C         140.1868  142.4782  163.6244 C.ar    1  UNL1        0.0515
     18 C         139.6432  143.1149  164.8690 C.ar    1  UNL1        0.0147
     19 C         140.2415  142.7833  166.2039 C.ar    1  UNL1        0.0012
     20 C         141.3834  141.8150  166.2942 C.ar    1  UNL1        0.0040
     21 C         141.9271  141.1782  165.0496 C.ar    1  UNL1        0.0727
     22 C         141.3288  141.5099  163.7147 C.ar    1  UNL1        0.0186
     23 C         141.9818  141.4833  167.6291 C.ar    1  UNL1       -0.0000
     24 C         141.5593  140.2387  168.3520 C.ar    1  UNL1       -0.0000
     25 C         142.1576  139.9070  169.6868 C.ar    1  UNL1       -0.0000
     26 C         143.1784  140.8199  170.2989 C.ar    1  UNL1       -0.0000
     27 C         143.6008  142.0645  169.5760 C.ar    1  UNL1       -0.0000
     28 C         143.0025  142.3962  168.2411 C.ar    1  UNL1       -0.0000
     29 C         143.0691  140.2098  165.1399 C.3     1  UNL1        0.4186
     30 F         144.2111  139.2415  165.2303 F       1  UNL1       -0.1659
     31 F         144.0416  141.3468  165.0328 F       1  UNL1       -0.1659
     32 F         142.0966  139.0729  165.2470 F       1  UNL1       -0.1659
@<TRIPOS>BOND
     1    15    16    1
     2    16     9    1
     3     9    10   ar
     4    10    11   ar
     5    11    12   ar
     6    12    13   ar
     7    13    14   ar
     8    14     1    1
     9     1     2    2
    10     1     3   am
    11     3     4   am
    12     4     5    2
    13     4     6   am
    14     6    17    1
    15    17    18   ar
    16    18    19   ar
    17    19    20   ar
    18    20    23    1
    19    23    24   ar
    20    24    25   ar
    21    25    26   ar
    22    26    27   ar
    23    27    28   ar
    24    20    21   ar
    25    21    29    1
    26    29    30    1
    27    29    31    1
    28    29    32    1
    29    21    22   ar
    30    14     9   ar
    31    22    17   ar
    32    28    23   ar
    33     3     7    1
    34     6     8    1
@<TRIPOS>MOLECULE
*****
 32 34 0 0 0
SMALL
GASTEIGER

@<TRIPOS>ATOM
      1 C         137.4443  141.1130  157.2178 C.2     1  UNL1        0.2571
      2 O         138.5724  142.0831  157.4080 O.2     1  UNL1       -0.2695
      3 N         137.0166  140.2284  158.3512 N.am    1  UNL1       -0.2357
      4 C         137.7170  140.3140  159.6748 C.2     1  UNL1        0.3104
      5 O         138.8452  141.2841  159.8651 O.2     1  UNL1       -0.2521
      6 N         137.2893  139.4294  160.8083 N.am    1  UNL1       -0.2680
      7 H         136.2762  139.5917  158.2263 H       1  UNL1        0.1594
      8 H         136.5489  138.7927  160.6834 H       1  UNL1        0.1564
      9 C         135.3196  140.5614  155.8280 C.ar    1  UNL1        0.1461
     10 C         134.6192  140.4758  154.5044 C.ar    1  UNL1        0.0577
     11 C         135.3430  140.8563  153.2468 C.ar    1  UNL1        0.1020
     12 N         136.7672  141.3223  153.3129 N.ar    1  UNL1       -0.2420
     13 C         137.4676  141.4079  154.6366 C.ar    1  UNL1        0.1064
     14 C         136.7438  141.0274  155.8941 C.ar    1  UNL1        0.1068
     15 C         133.5168  139.1398  157.0441 C.3     1  UNL1        0.2525
     16 O         134.5958  140.1809  157.0855 O.3     1  UNL1       -0.4712
     17 C         137.9898  139.5150  162.1319 C.ar    1  UNL1        0.0515
     18 C         138.4457  138.2633  162.8215 C.ar    1  UNL1        0.0147
     19 C         139.1462  138.3488  164.1451 C.ar    1  UNL1        0.0012
     20 C         139.3907  139.6860  164.7792 C.ar    1  UNL1        0.0040
     21 C         138.9348  140.9377  164.0896 C.ar    1  UNL1        0.0727
     22 C         138.2344  140.8522  162.7660 C.ar    1  UNL1        0.0186
     23 C         140.0912  139.7716  166.1029 C.ar    1  UNL1       -0.0000
     24 C         141.5878  139.6926  166.1659 C.ar    1  UNL1       -0.0000
     25 C         142.2883  139.7781  167.4895 C.ar    1  UNL1       -0.0000
     26 C         141.4922  139.9427  168.7500 C.ar    1  UNL1       -0.0000
     27 C         139.9956  140.0217  168.6870 C.ar    1  UNL1       -0.0000
     28 C         139.2951  139.9361  167.3634 C.ar    1  UNL1       -0.0000
     29 C         139.1794  142.2749  164.7238 C.3     1  UNL1        0.4186
     30 F         139.4240  143.6121  165.3579 F       1  UNL1       -0.1659
     31 F         137.7459  142.3292  165.1620 F       1  UNL1       -0.1659
     32 F         140.6129  142.2206  164.2856 F       1  UNL1       -0.1659
@<TRIPOS>BOND
     1    15    16    1
     2    16     9    1
     3     9    10   ar
     4    10    11   ar
     5    11    12   ar
     6    12    13   ar
     7    13    14   ar
     8    14     1    1
     9     1     2    2
    10     1     3   am
    11     3     4   am
    12     4     5    2
    13     4     6   am
    14     6    17    1
    15    17    18   ar
    16    18    19   ar
    17    19    20   ar
    18    20    23    1
    19    23    24   ar
    20    24    25   ar
    21    25    26   ar
    22    26    27   ar
    23    27    28   ar
    24    20    21   ar
    25    21    29    1
    26    29    30    1
    27    29    31    1
    28    29    32    1
    29    21    22   ar
    30    14     9   ar
    31    22    17   ar
    32    28    23   ar
    33     3     7    1
    34     6     8    1
@<TRIPOS>MOLECULE
*****
 32 34 0 0 0
SMALL
GASTEIGER

@<TRIPOS>ATOM
      1 C         144.2447  141.6121  158.8034 C.2     1  UNL1        0.2571
      2 O         144.0052  143.0468  159.1697 O.2     1  UNL1       -0.2695
      3 N         143.9075  140.5228  159.7779 N.am    1  UNL1       -0.2357
      4 C         143.3309  140.8682  161.1189 C.2     1  UNL1        0.3104
      5 O         143.0914  142.3030  161.4853 O.2     1  UNL1       -0.2521
      6 N         142.9937  139.7790  162.0934 N.am    1  UNL1       -0.2680
      7 H         144.0647  139.5811  159.5375 H       1  UNL1        0.1594
      8 H         143.1508  138.8373  161.8530 H       1  UNL1        0.1564
      9 C         144.4199  139.9932  156.7788 C.ar    1  UNL1        0.1461
     10 C         144.9965  139.6477  155.4379 C.ar    1  UNL1        0.0577
     11 C         145.9747  140.5757  154.7805 C.ar    1  UNL1        0.1020
     12 N         146.3761  141.8491  155.4641 N.ar    1  UNL1       -0.2420
     13 C         145.7995  142.1945  156.8050 C.ar    1  UNL1        0.1064
     14 C         144.8213  141.2666  157.4624 C.ar    1  UNL1        0.1068
     15 C         142.9314  137.8654  156.6946 C.3     1  UNL1        0.2525
     16 O         143.4418  139.0652  157.4362 O.3     1  UNL1       -0.4712
     17 C         142.4170  140.1244  163.4344 C.ar    1  UNL1        0.0515
     18 C         143.2208  139.8908  164.6792 C.ar    1  UNL1        0.0147
     19 C         142.6442  140.2363  166.0201 C.ar    1  UNL1        0.0012
     20 C         141.2638  140.8154  166.1163 C.ar    1  UNL1        0.0040
     21 C         140.4601  141.0490  164.8715 C.ar    1  UNL1        0.0727
     22 C         141.0367  140.7035  163.5306 C.ar    1  UNL1        0.0186
     23 C         140.6872  141.1609  167.4573 C.ar    1  UNL1       -0.0000
     24 C         139.8852  140.1435  168.2134 C.ar    1  UNL1       -0.0000
     25 C         139.3085  140.4889  169.5544 C.ar    1  UNL1       -0.0000
     26 C         139.5339  141.8517  170.1391 C.ar    1  UNL1       -0.0000
     27 C         140.3359  142.8691  169.3829 C.ar    1  UNL1       -0.0000
     28 C         140.9125  142.5237  168.0420 C.ar    1  UNL1       -0.0000
     29 C         139.0797  141.6281  164.9678 C.3     1  UNL1        0.4186
     30 F         137.6994  142.2072  165.0640 F       1  UNL1       -0.1659
     31 F         139.6529  143.0107  164.8697 F       1  UNL1       -0.1659
     32 F         138.5064  140.2454  165.0658 F       1  UNL1       -0.1659
@<TRIPOS>BOND
     1    15    16    1
     2    16     9    1
     3     9    10   ar
     4    10    11   ar
     5    11    12   ar
     6    12    13   ar
     7    13    14   ar
     8    14     1    1
     9     1     2    2
    10     1     3   am
    11     3     4   am
    12     4     5    2
    13     4     6   am
    14     6    17    1
    15    17    18   ar
    16    18    19   ar
    17    19    20   ar
    18    20    23    1
    19    23    24   ar
    20    24    25   ar
    21    25    26   ar
    22    26    27   ar
    23    27    28   ar
    24    20    21   ar
    25    21    29    1
    26    29    30    1
    27    29    31    1
    28    29    32    1
    29    21    22   ar
    30    14     9   ar
    31    22    17   ar
    32    28    23   ar
    33     3     7    1
    34     6     8    1
@<TRIPOS>MOLECULE
*****
 32 34 0 0 0
SMALL
GASTEIGER

@<TRIPOS>ATOM
      1 C         140.4870  138.0451  157.7026 C.2     1  UNL1        0.2571
      2 O         141.9259  138.2307  158.0833 O.2     1  UNL1       -0.2695
      3 N         139.4154  138.1495  158.7470 N.am    1  UNL1       -0.2357
      4 C         139.7827  138.4396  160.1721 C.2     1  UNL1        0.3104
      5 O         141.2217  138.6252  160.5529 O.2     1  UNL1       -0.2521
      6 N         138.7111  138.5440  161.2165 N.am    1  UNL1       -0.2680
      7 H         138.4710  138.0277  158.4972 H       1  UNL1        0.1594
      8 H         137.7667  138.4221  160.9667 H       1  UNL1        0.1564
      9 C         140.7099  136.5670  155.5777 C.ar    1  UNL1        0.1461
     10 C         140.3425  136.2770  154.1526 C.ar    1  UNL1        0.0577
     11 C         139.3848  137.1751  153.4274 C.ar    1  UNL1        0.1020
     12 N         138.7944  138.3633  154.1272 N.ar    1  UNL1       -0.2420
     13 C         139.1618  138.6533  155.5522 C.ar    1  UNL1        0.1064
     14 C         140.1196  137.7551  156.2775 C.ar    1  UNL1        0.1068
     15 C         143.1068  135.6123  155.8838 C.3     1  UNL1        0.2525
     16 O         141.6677  135.6688  156.3030 O.3     1  UNL1       -0.4712
     17 C         139.0785  138.8340  162.6417 C.ar    1  UNL1        0.0515
     18 C         139.2259  137.7084  163.6221 C.ar    1  UNL1        0.0147
     19 C         139.5933  137.9984  165.0472 C.ar    1  UNL1        0.0012
     20 C         139.8133  139.4139  165.4918 C.ar    1  UNL1        0.0040
     21 C         139.6659  140.5395  164.5114 C.ar    1  UNL1        0.0727
     22 C         139.2985  140.2496  163.0863 C.ar    1  UNL1        0.0186
     23 C         140.1807  139.7040  166.9170 C.ar    1  UNL1       -0.0000
     24 C         139.1049  139.9187  167.9400 C.ar    1  UNL1       -0.0000
     25 C         139.4722  140.2087  169.3651 C.ar    1  UNL1       -0.0000
     26 C         140.9153  140.2840  169.7672 C.ar    1  UNL1       -0.0000
     27 C         141.9911  140.0693  168.7441 C.ar    1  UNL1       -0.0000
     28 C         141.6238  139.7792  167.3191 C.ar    1  UNL1       -0.0000
     29 C         139.8859  141.9552  164.9561 C.3     1  UNL1        0.4186
     30 F         140.1059  143.3707  165.4007 F       1  UNL1       -0.1659
     31 F         138.4240  142.0852  165.2653 F       1  UNL1       -0.1659
     32 F         141.3479  141.8251  164.6469 F       1  UNL1       -0.1659
@<TRIPOS>BOND
     1    15    16    1
     2    16     9    1
     3     9    10   ar
     4    10    11   ar
     5    11    12   ar
     6    12    13   ar
     7    13    14   ar
     8    14     1    1
     9     1     2    2
    10     1     3   am
    11     3     4   am
    12     4     5    2
    13     4     6   am
    14     6    17    1
    15    17    18   ar
    16    18    19   ar
    17    19    20   ar
    18    20    23    1
    19    23    24   ar
    20    24    25   ar
    21    25    26   ar
    22    26    27   ar
    23    27    28   ar
    24    20    21   ar
    25    21    29    1
    26    29    30    1
    27    29    31    1
    28    29    32    1
    29    21    22   ar
    30    14     9   ar
    31    22    17   ar
    32    28    23   ar
    33     3     7    1
    34     6     8    1
