@<TRIPOS>MOLECULE
*****
 38 41 0 0 0
SMALL
GASTEIGER

@<TRIPOS>ATOM
      1 C         138.0855  143.8403  163.7132 C.3     1  UNL1        0.0188
      2 C         138.2983  143.0667  162.4458 C.3     1  UNL1        0.0736
      3 C         137.7163  141.6920  162.2995 C.3     1  UNL1        0.0884
      4 N         137.9292  140.9183  161.0322 N.3     1  UNL1       -0.2660
      5 C         138.7240  141.5194  159.9111 C.3     1  UNL1        0.0884
      6 C         139.3060  142.8941  160.0573 C.3     1  UNL1        0.0736
      7 C         140.1009  143.4952  158.9362 C.3     1  UNL1        0.0188
      8 N         139.0931  143.6677  161.3247 N.3     1  UNL1       -0.2706
      9 C         137.3471  139.5436  160.8860 C.3     1  UNL1        0.1374
     10 C         138.0342  138.3675  161.5142 C.3     1  UNL1        0.2734
     11 S         139.5275  138.3590  161.6557 S.O     1  UNL1        0.0356
     12 O         140.3790  137.7452  160.5841 O.co2   1  UNL1       -0.6809
     13 C         140.1694  138.9643  162.8689 C.3     1  UNL1        0.2470
     14 C         141.5099  139.6278  162.7559 C.ar    1  UNL1        0.0356
     15 C         141.6429  140.9298  162.0229 C.ar    1  UNL1        0.0032
     16 C         142.9834  141.5933  161.9099 C.ar    1  UNL1        0.0295
     17 C         144.1909  140.9548  162.5298 C.ar    1  UNL1        0.1401
     18 F         145.5314  141.6184  162.4168 F       1  UNL1       -0.2042
     19 C         144.0579  139.6529  163.2627 C.ar    1  UNL1        0.0295
     20 C         142.7174  138.9893  163.3758 C.ar    1  UNL1        0.0032
     21 C         139.4707  138.9060  164.1949 C.ar    1  UNL1        0.0356
     22 C         138.9626  137.5952  164.7180 C.ar    1  UNL1        0.0032
     23 C         138.2639  137.5370  166.0441 C.ar    1  UNL1        0.0295
     24 C         138.0734  138.7895  166.8471 C.ar    1  UNL1        0.1401
     25 F         137.3748  138.7313  168.1732 F       1  UNL1       -0.2042
     26 C         138.5816  140.1003  166.3241 C.ar    1  UNL1        0.0295
     27 C         139.2802  140.1586  164.9979 C.ar    1  UNL1        0.0032
     28 C         139.6752  145.0425  161.4709 C.3     1  UNL1        0.1020
     29 C         141.0921  145.2118  161.9333 C.3     1  UNL1        0.1308
     30 O         142.2181  145.1309  160.9455 O.3     1  UNL1       -0.3827
     31 H         141.8596  144.9659  160.0594 H       1  UNL1        0.2104
     32 C         141.3830  145.4618  163.3834 C.3     1  UNL1        0.0570
     33 C         142.1626  144.4551  164.1764 C.ar    1  UNL1       -0.0197
     34 C         143.6529  144.5810  164.2897 C.ar    1  UNL1       -0.0042
     35 C         144.4325  143.5743  165.0828 C.ar    1  UNL1       -0.0003
     36 C         143.7217  142.4418  165.7624 C.ar    1  UNL1       -0.0000
     37 C         142.2312  142.3159  165.6491 C.ar    1  UNL1       -0.0003
     38 C         141.4517  143.3225  164.8561 C.ar    1  UNL1       -0.0042
@<TRIPOS>UNITY_ATOM_ATTR
11 1
charge 1
12 1
charge -1
@<TRIPOS>BOND
     1     2     1    1
     2     2     3    1
     3     3     4    1
     4     4     9    1
     5     9    10    1
     6    10    11    1
     7    11    12    2
     8    11    13    1
     9    13    14    1
    10    14    15   ar
    11    15    16   ar
    12    16    17   ar
    13    17    18    1
    14    17    19   ar
    15    19    20   ar
    16    13    21    1
    17    21    22   ar
    18    22    23   ar
    19    23    24   ar
    20    24    25    1
    21    24    26   ar
    22    26    27   ar
    23     4     5    1
    24     5     6    1
    25     6     7    1
    26     6     8    1
    27     8    28    1
    28    28    29    1
    29    29    30    1
    30    29    32    1
    31    32    33    1
    32    33    34   ar
    33    34    35   ar
    34    35    36   ar
    35    36    37   ar
    36    37    38   ar
    37     8     2    1
    38    38    33   ar
    39    20    14   ar
    40    27    21   ar
    41    30    31    1
@<TRIPOS>MOLECULE
*****
 38 41 0 0 0
SMALL
GASTEIGER

@<TRIPOS>ATOM
      1 C         144.4291  143.9115  162.1892 C.3     1  UNL1        0.0188
      2 C         143.8198  142.5495  162.3438 C.3     1  UNL1        0.0736
      3 C         144.2667  141.6501  163.4580 C.3     1  UNL1        0.0884
      4 N         143.6574  140.2882  163.6126 N.3     1  UNL1       -0.2660
      5 C         142.6012  139.8257  162.6532 C.3     1  UNL1        0.0884
      6 C         142.1544  140.7251  161.5391 C.3     1  UNL1        0.0736
      7 C         141.0982  140.2627  160.5796 C.3     1  UNL1        0.0188
      8 N         142.7637  142.0871  161.3844 N.3     1  UNL1       -0.2706
      9 C         144.1043  139.3888  164.7268 C.3     1  UNL1        0.1374
     10 C         143.1001  138.5561  165.4672 C.3     1  UNL1        0.2734
     11 S         142.4646  139.0844  166.7189 S.O     1  UNL1        0.0356
     12 O         143.1803  138.9643  168.0317 O.co2   1  UNL1       -0.6809
     13 C         141.1134  139.7329  166.6580 C.3     1  UNL1        0.2470
     14 C         140.6613  140.6305  167.7716 C.ar    1  UNL1        0.0356
     15 C         141.0898  142.0677  167.7974 C.ar    1  UNL1        0.0032
     16 C         140.6378  142.9653  168.9109 C.ar    1  UNL1        0.0295
     17 C         139.7573  142.4256  169.9987 C.ar    1  UNL1        0.1401
     18 F         139.3052  143.3232  171.1123 F       1  UNL1       -0.2042
     19 C         139.3287  140.9883  169.9729 C.ar    1  UNL1        0.0295
     20 C         139.7807  140.0908  168.8594 C.ar    1  UNL1        0.0032
     21 C         140.2142  139.4838  165.4835 C.ar    1  UNL1        0.0356
     22 C         139.8542  138.0793  165.0991 C.ar    1  UNL1        0.0032
     23 C         138.9550  137.8302  163.9246 C.ar    1  UNL1        0.0295
     24 C         138.4159  138.9856  163.1344 C.ar    1  UNL1        0.1401
     25 F         137.5168  138.7366  161.9600 F       1  UNL1       -0.2042
     26 C         138.7759  140.3901  163.5188 C.ar    1  UNL1        0.0295
     27 C         139.6751  140.6393  164.6933 C.ar    1  UNL1        0.0032
     28 C         142.3168  142.9865  160.2702 C.3     1  UNL1        0.1020
     29 C         141.3193  144.0742  160.5387 C.3     1  UNL1        0.1308
     30 O         141.7035  145.5103  160.3381 O.3     1  UNL1       -0.3827
     31 H         142.6237  145.5596  160.0354 H       1  UNL1        0.2104
     32 C         139.9378  143.7259  161.0076 C.3     1  UNL1        0.0570
     33 C         139.5638  143.9179  162.4475 C.ar    1  UNL1       -0.0197
     34 C         138.1190  143.9490  162.8494 C.ar    1  UNL1       -0.0042
     35 C         137.7451  144.1410  164.2893 C.ar    1  UNL1       -0.0003
     36 C         138.8159  144.3018  165.3273 C.ar    1  UNL1       -0.0000
     37 C         140.2607  144.2707  164.9254 C.ar    1  UNL1       -0.0003
     38 C         140.6347  144.0787  163.4855 C.ar    1  UNL1       -0.0042
@<TRIPOS>UNITY_ATOM_ATTR
11 1
charge 1
12 1
charge -1
@<TRIPOS>BOND
     1     2     1    1
     2     2     3    1
     3     3     4    1
     4     4     9    1
     5     9    10    1
     6    10    11    1
     7    11    12    2
     8    11    13    1
     9    13    14    1
    10    14    15   ar
    11    15    16   ar
    12    16    17   ar
    13    17    18    1
    14    17    19   ar
    15    19    20   ar
    16    13    21    1
    17    21    22   ar
    18    22    23   ar
    19    23    24   ar
    20    24    25    1
    21    24    26   ar
    22    26    27   ar
    23     4     5    1
    24     5     6    1
    25     6     7    1
    26     6     8    1
    27     8    28    1
    28    28    29    1
    29    29    30    1
    30    29    32    1
    31    32    33    1
    32    33    34   ar
    33    34    35   ar
    34    35    36   ar
    35    36    37   ar
    36    37    38   ar
    37     8     2    1
    38    38    33   ar
    39    20    14   ar
    40    27    21   ar
    41    30    31    1
@<TRIPOS>MOLECULE
*****
 38 41 0 0 0
SMALL
GASTEIGER

@<TRIPOS>ATOM
      1 C         144.4604  143.6345  161.9568 C.3     1  UNL1        0.0188
      2 C         143.7878  142.3144  162.1912 C.3     1  UNL1        0.0736
      3 C         144.2406  141.4312  163.3159 C.3     1  UNL1        0.0884
      4 N         143.5680  140.1111  163.5503 N.3     1  UNL1       -0.2660
      5 C         142.4427  139.6741  162.6601 C.3     1  UNL1        0.0884
      6 C         141.9900  140.5573  161.5353 C.3     1  UNL1        0.0736
      7 C         140.8646  140.1203  160.6450 C.3     1  UNL1        0.0188
      8 N         142.6625  141.8774  161.3009 N.3     1  UNL1       -0.2706
      9 C         144.0209  139.2280  164.6751 C.3     1  UNL1        0.1374
     10 C         143.0127  138.4638  165.4812 C.3     1  UNL1        0.2734
     11 S         142.4248  139.0733  166.7193 S.O     1  UNL1        0.0356
     12 O         143.1849  139.0272  168.0117 O.co2   1  UNL1       -0.6809
     13 C         141.0767  139.7289  166.6650 C.3     1  UNL1        0.2470
     14 C         140.1711  139.4860  165.4941 C.ar    1  UNL1        0.0356
     15 C         139.6051  140.6463  164.7303 C.ar    1  UNL1        0.0032
     16 C         138.6996  140.4034  163.5595 C.ar    1  UNL1        0.0295
     17 C         138.3601  139.0002  163.1524 C.ar    1  UNL1        0.1401
     18 F         137.4545  138.7573  161.9814 F       1  UNL1       -0.2042
     19 C         138.9261  137.8399  163.9161 C.ar    1  UNL1        0.0295
     20 C         139.8316  138.0828  165.0870 C.ar    1  UNL1        0.0032
     21 C         140.6342  140.6274  167.7816 C.ar    1  UNL1        0.0356
     22 C         141.0473  142.0695  167.7924 C.ar    1  UNL1        0.0032
     23 C         140.6048  142.9680  168.9090 C.ar    1  UNL1        0.0295
     24 C         139.7493  142.4245  170.0148 C.ar    1  UNL1        0.1401
     25 F         139.3068  143.3230  171.1314 F       1  UNL1       -0.2042
     26 C         139.3363  140.9826  170.0041 C.ar    1  UNL1        0.0295
     27 C         139.7788  140.0840  168.8874 C.ar    1  UNL1        0.0032
     28 C         142.2097  142.7605  160.1761 C.3     1  UNL1        0.1020
     29 C         141.3251  143.9389  160.4573 C.3     1  UNL1        0.1308
     30 O         141.8452  145.3317  160.2575 O.3     1  UNL1       -0.3827
     31 H         142.7630  145.2925  159.9461 H       1  UNL1        0.2104
     32 C         139.9206  143.7246  160.9382 C.3     1  UNL1        0.0570
     33 C         139.5876  143.9122  162.3887 C.ar    1  UNL1       -0.0197
     34 C         138.1548  143.9459  162.8310 C.ar    1  UNL1       -0.0042
     35 C         137.8218  144.1336  164.2815 C.ar    1  UNL1       -0.0003
     36 C         138.9217  144.2876  165.2897 C.ar    1  UNL1       -0.0000
     37 C         140.3547  144.2539  164.8474 C.ar    1  UNL1       -0.0003
     38 C         140.6877  144.0662  163.3969 C.ar    1  UNL1       -0.0042
@<TRIPOS>UNITY_ATOM_ATTR
11 1
charge 1
12 1
charge -1
@<TRIPOS>BOND
     1     2     1    1
     2     2     3    1
     3     3     4    1
     4     4     9    1
     5     9    10    1
     6    10    11    1
     7    11    12    2
     8    11    13    1
     9    13    14    1
    10    14    15   ar
    11    15    16   ar
    12    16    17   ar
    13    17    18    1
    14    17    19   ar
    15    19    20   ar
    16    13    21    1
    17    21    22   ar
    18    22    23   ar
    19    23    24   ar
    20    24    25    1
    21    24    26   ar
    22    26    27   ar
    23     4     5    1
    24     5     6    1
    25     6     7    1
    26     6     8    1
    27     8    28    1
    28    28    29    1
    29    29    30    1
    30    29    32    1
    31    32    33    1
    32    33    34   ar
    33    34    35   ar
    34    35    36   ar
    35    36    37   ar
    36    37    38   ar
    37     8     2    1
    38    38    33   ar
    39    20    14   ar
    40    27    21   ar
    41    30    31    1
@<TRIPOS>MOLECULE
*****
 38 41 0 0 0
SMALL
GASTEIGER

@<TRIPOS>ATOM
      1 C         138.3517  144.0597  164.6396 C.3     1  UNL1        0.0188
      2 C         139.5582  144.0454  163.7485 C.3     1  UNL1        0.0736
      3 C         140.8665  144.5819  164.2488 C.3     1  UNL1        0.0884
      4 N         142.0731  144.5676  163.3577 N.3     1  UNL1       -0.2660
      5 C         141.9713  144.0168  161.9662 C.3     1  UNL1        0.0884
      6 C         140.6629  143.4803  161.4659 C.3     1  UNL1        0.0736
      7 C         140.5611  142.9295  160.0743 C.3     1  UNL1        0.0188
      8 N         139.4564  143.4946  162.3570 N.3     1  UNL1       -0.2706
      9 C         143.3815  145.1041  163.8581 C.3     1  UNL1        0.1374
     10 C         144.1186  144.3857  164.9493 C.3     1  UNL1        0.2734
     11 S         144.3487  142.9067  164.8510 S.O     1  UNL1        0.0356
     12 O         145.6091  142.3835  164.2282 O.co2   1  UNL1       -0.6809
     13 C         143.3186  141.9509  165.3756 C.3     1  UNL1        0.2470
     14 C         142.6429  142.2219  166.6872 C.ar    1  UNL1        0.0356
     15 C         143.4569  142.3259  167.9428 C.ar    1  UNL1        0.0032
     16 C         142.7813  142.5969  169.2543 C.ar    1  UNL1        0.0295
     17 C         141.2917  142.7639  169.3102 C.ar    1  UNL1        0.1401
     18 F         140.6160  143.0349  170.6217 F       1  UNL1       -0.2042
     19 C         140.4777  142.6599  168.0546 C.ar    1  UNL1        0.0295
     20 C         141.1533  142.3889  166.7431 C.ar    1  UNL1        0.0032
     21 C         142.9641  140.7241  164.5887 C.ar    1  UNL1        0.0356
     22 C         142.5866  140.8442  163.1419 C.ar    1  UNL1        0.0032
     23 C         142.2321  139.6174  162.3550 C.ar    1  UNL1        0.0295
     24 C         142.2551  138.2705  163.0148 C.ar    1  UNL1        0.1401
     25 F         141.9006  137.0437  162.2279 F       1  UNL1       -0.2042
     26 C         142.6325  138.1504  164.4615 C.ar    1  UNL1        0.0295
     27 C         142.9870  139.3772  165.2485 C.ar    1  UNL1        0.0032
     28 C         138.1480  142.9581  161.8566 C.3     1  UNL1        0.1020
     29 C         137.6359  141.6410  162.3595 C.3     1  UNL1        0.1308
     30 O         136.3119  141.5694  163.0609 O.3     1  UNL1       -0.3827
     31 H         135.9210  142.4561  163.1050 H       1  UNL1        0.2104
     32 C         138.4478  140.3954  162.1609 C.3     1  UNL1        0.0570
     33 C         138.7285  139.4899  163.3234 C.ar    1  UNL1       -0.0197
     34 C         138.6857  138.0015  163.1421 C.ar    1  UNL1       -0.0042
     35 C         138.9664  137.0960  164.3045 C.ar    1  UNL1       -0.0003
     36 C         139.2899  137.6788  165.6482 C.ar    1  UNL1       -0.0000
     37 C         139.3328  139.1673  165.8295 C.ar    1  UNL1       -0.0003
     38 C         139.0521  140.0728  164.6671 C.ar    1  UNL1       -0.0042
@<TRIPOS>UNITY_ATOM_ATTR
11 1
charge 1
12 1
charge -1
@<TRIPOS>BOND
     1     2     1    1
     2     2     3    1
     3     3     4    1
     4     4     9    1
     5     9    10    1
     6    10    11    1
     7    11    12    2
     8    11    13    1
     9    13    14    1
    10    14    15   ar
    11    15    16   ar
    12    16    17   ar
    13    17    18    1
    14    17    19   ar
    15    19    20   ar
    16    13    21    1
    17    21    22   ar
    18    22    23   ar
    19    23    24   ar
    20    24    25    1
    21    24    26   ar
    22    26    27   ar
    23     4     5    1
    24     5     6    1
    25     6     7    1
    26     6     8    1
    27     8    28    1
    28    28    29    1
    29    29    30    1
    30    29    32    1
    31    32    33    1
    32    33    34   ar
    33    34    35   ar
    34    35    36   ar
    35    36    37   ar
    36    37    38   ar
    37     8     2    1
    38    38    33   ar
    39    20    14   ar
    40    27    21   ar
    41    30    31    1
@<TRIPOS>MOLECULE
*****
 38 41 0 0 0
SMALL
GASTEIGER

@<TRIPOS>ATOM
      1 C         143.5653  145.1793  163.8959 C.3     1  UNL1        0.0188
      2 C         143.5746  143.7957  163.3167 C.3     1  UNL1        0.0736
      3 C         144.2739  142.6840  164.0412 C.3     1  UNL1        0.0884
      4 N         144.2832  141.3004  163.4619 N.3     1  UNL1       -0.2660
      5 C         143.5933  141.0285  162.1581 C.3     1  UNL1        0.0884
      6 C         142.8940  142.1402  161.4335 C.3     1  UNL1        0.0736
      7 C         142.2040  141.8684  160.1296 C.3     1  UNL1        0.0188
      8 N         142.8847  143.5238  162.0128 N.3     1  UNL1       -0.2706
      9 C         144.9825  140.1886  164.1866 C.3     1  UNL1        0.1374
     10 C         144.2642  138.8992  164.4540 C.3     1  UNL1        0.2734
     11 S         143.4296  138.7483  165.6912 S.O     1  UNL1        0.0356
     12 O         143.9690  137.9978  166.8728 O.co2   1  UNL1       -0.6809
     13 C         142.0557  139.3477  165.7469 C.3     1  UNL1        0.2470
     14 C         141.0240  138.9540  164.7316 C.ar    1  UNL1        0.0356
     15 C         140.0151  137.8937  165.0600 C.ar    1  UNL1        0.0032
     16 C         138.9834  137.5000  164.0449 C.ar    1  UNL1        0.0295
     17 C         138.9606  138.1666  162.7014 C.ar    1  UNL1        0.1401
     18 F         137.9289  137.7729  161.6862 F       1  UNL1       -0.2042
     19 C         139.9695  139.2269  162.3730 C.ar    1  UNL1        0.0295
     20 C         141.0012  139.6206  163.3881 C.ar    1  UNL1        0.0032
     21 C         141.7136  140.3407  166.8177 C.ar    1  UNL1        0.0356
     22 C         140.4631  140.1687  167.6282 C.ar    1  UNL1        0.0032
     23 C         140.1209  141.1618  168.6991 C.ar    1  UNL1        0.0295
     24 C         141.0291  142.3269  168.9594 C.ar    1  UNL1        0.1401
     25 F         140.6870  143.3199  170.0302 F       1  UNL1       -0.2042
     26 C         142.2795  142.4989  168.1489 C.ar    1  UNL1        0.0295
     27 C         142.6218  141.5058  167.0780 C.ar    1  UNL1        0.0032
     28 C         142.1854  144.6356  161.2882 C.3     1  UNL1        0.1020
     29 C         140.8254  145.0835  161.7353 C.3     1  UNL1        0.1308
     30 O         140.6536  146.4242  162.3858 O.3     1  UNL1       -0.3827
     31 H         141.5136  146.8698  162.4402 H       1  UNL1        0.2104
     32 C         139.6373  144.1908  161.5320 C.3     1  UNL1        0.0570
     33 C         139.1591  143.3125  162.6499 C.ar    1  UNL1       -0.0197
     34 C         139.8396  143.3614  163.9858 C.ar    1  UNL1       -0.0042
     35 C         139.3614  142.4830  165.1037 C.ar    1  UNL1       -0.0003
     36 C         138.2027  141.5557  164.8858 C.ar    1  UNL1       -0.0000
     37 C         137.5221  141.5068  163.5499 C.ar    1  UNL1       -0.0003
     38 C         138.0003  142.3851  162.4320 C.ar    1  UNL1       -0.0042
@<TRIPOS>UNITY_ATOM_ATTR
11 1
charge 1
12 1
charge -1
@<TRIPOS>BOND
     1     2     1    1
     2     2     3    1
     3     3     4    1
     4     4     9    1
     5     9    10    1
     6    10    11    1
     7    11    12    2
     8    11    13    1
     9    13    14    1
    10    14    15   ar
    11    15    16   ar
    12    16    17   ar
    13    17    18    1
    14    17    19   ar
    15    19    20   ar
    16    13    21    1
    17    21    22   ar
    18    22    23   ar
    19    23    24   ar
    20    24    25    1
    21    24    26   ar
    22    26    27   ar
    23     4     5    1
    24     5     6    1
    25     6     7    1
    26     6     8    1
    27     8    28    1
    28    28    29    1
    29    29    30    1
    30    29    32    1
    31    32    33    1
    32    33    34   ar
    33    34    35   ar
    34    35    36   ar
    35    36    37   ar
    36    37    38   ar
    37     8     2    1
    38    38    33   ar
    39    20    14   ar
    40    27    21   ar
    41    30    31    1
@<TRIPOS>MOLECULE
*****
 38 41 0 0 0
SMALL
GASTEIGER

@<TRIPOS>ATOM
      1 C         141.0647  143.1201  159.8668 C.3     1  UNL1        0.0188
      2 C         141.0606  143.6617  161.2656 C.3     1  UNL1        0.0736
      3 C         142.3398  144.1338  161.8908 C.3     1  UNL1        0.0884
      4 N         142.3357  144.6753  163.2896 N.3     1  UNL1       -0.2660
      5 C         141.0525  144.7447  164.0633 C.3     1  UNL1        0.0884
      6 C         139.7734  144.2726  163.4381 C.3     1  UNL1        0.0736
      7 C         138.4901  144.3420  164.2118 C.3     1  UNL1        0.0188
      8 N         139.7774  143.7311  162.0393 N.3     1  UNL1       -0.2706
      9 C         143.6149  145.1474  163.9148 C.3     1  UNL1        0.1374
     10 C         144.2269  144.3748  165.0455 C.3     1  UNL1        0.2734
     11 S         144.3781  142.8861  164.9414 S.O     1  UNL1        0.0356
     12 O         145.6312  142.2980  164.3634 O.co2   1  UNL1       -0.6809
     13 C         143.2762  141.9854  165.4153 C.3     1  UNL1        0.2470
     14 C         142.8612  140.8071  164.5849 C.ar    1  UNL1        0.0356
     15 C         142.0366  141.0137  163.3491 C.ar    1  UNL1        0.0032
     16 C         141.6216  139.8354  162.5187 C.ar    1  UNL1        0.0295
     17 C         142.0314  138.4507  162.9241 C.ar    1  UNL1        0.1401
     18 F         141.6164  137.2723  162.0937 F       1  UNL1       -0.2042
     19 C         142.8560  138.2441  164.1599 C.ar    1  UNL1        0.0295
     20 C         143.2710  139.4223  164.9903 C.ar    1  UNL1        0.0032
     21 C         142.5892  142.2630  166.7195 C.ar    1  UNL1        0.0356
     22 C         143.3815  142.2938  167.9929 C.ar    1  UNL1        0.0032
     23 C         142.6946  142.5714  169.2971 C.ar    1  UNL1        0.0295
     24 C         141.2153  142.8181  169.3280 C.ar    1  UNL1        0.1401
     25 F         140.5284  143.0957  170.6322 F       1  UNL1       -0.2042
     26 C         140.4230  142.7873  168.0547 C.ar    1  UNL1        0.0295
     27 C         141.1100  142.5097  166.7504 C.ar    1  UNL1        0.0032
     28 C         138.4982  143.2590  161.4141 C.3     1  UNL1        0.1020
     29 C         138.1000  141.8166  161.5187 C.3     1  UNL1        0.1308
     30 O         138.4008  140.8719  160.3930 O.3     1  UNL1       -0.3827
     31 H         138.8519  141.3512  159.6805 H       1  UNL1        0.2104
     32 C         137.4009  141.3189  162.7490 C.3     1  UNL1        0.0570
     33 C         138.0308  140.2464  163.5874 C.ar    1  UNL1       -0.0197
     34 C         138.1618  138.8528  163.0482 C.ar    1  UNL1       -0.0042
     35 C         138.7916  137.7803  163.8867 C.ar    1  UNL1       -0.0003
     36 C         139.2905  138.1013  165.2643 C.ar    1  UNL1       -0.0000
     37 C         139.1596  139.4950  165.8036 C.ar    1  UNL1       -0.0003
     38 C         138.5297  140.5675  164.9652 C.ar    1  UNL1       -0.0042
@<TRIPOS>UNITY_ATOM_ATTR
11 1
charge 1
12 1
charge -1
@<TRIPOS>BOND
     1     2     1    1
     2     2     3    1
     3     3     4    1
     4     4     9    1
     5     9    10    1
     6    10    11    1
     7    11    12    2
     8    11    13    1
     9    13    14    1
    10    14    15   ar
    11    15    16   ar
    12    16    17   ar
    13    17    18    1
    14    17    19   ar
    15    19    20   ar
    16    13    21    1
    17    21    22   ar
    18    22    23   ar
    19    23    24   ar
    20    24    25    1
    21    24    26   ar
    22    26    27   ar
    23     4     5    1
    24     5     6    1
    25     6     7    1
    26     6     8    1
    27     8    28    1
    28    28    29    1
    29    29    30    1
    30    29    32    1
    31    32    33    1
    32    33    34   ar
    33    34    35   ar
    34    35    36   ar
    35    36    37   ar
    36    37    38   ar
    37     8     2    1
    38    38    33   ar
    39    20    14   ar
    40    27    21   ar
    41    30    31    1
@<TRIPOS>MOLECULE
*****
 38 41 0 0 0
SMALL
GASTEIGER

@<TRIPOS>ATOM
      1 C         144.2805  140.5216  161.1818 C.3     1  UNL1        0.0188
      2 C         143.9120  140.5227  162.6358 C.3     1  UNL1        0.0736
      3 C         143.2751  139.3109  163.2489 C.3     1  UNL1        0.0884
      4 N         142.9066  139.3119  164.7029 N.3     1  UNL1       -0.2660
      5 C         143.1749  140.5247  165.5438 C.3     1  UNL1        0.0884
      6 C         143.8118  141.7364  164.9307 C.3     1  UNL1        0.0736
      7 C         144.0802  142.9493  165.7716 C.3     1  UNL1        0.0188
      8 N         144.1803  141.7354  163.4767 N.3     1  UNL1       -0.2706
      9 C         142.2697  138.1001  165.3161 C.3     1  UNL1        0.1374
     10 C         140.9900  137.5584  164.7511 C.3     1  UNL1        0.2734
     11 S         139.6734  138.1027  165.2202 S.O     1  UNL1        0.0356
     12 O         138.5615  137.1647  165.5861 O.co2   1  UNL1       -0.6809
     13 C         139.4685  139.5851  165.3233 C.3     1  UNL1        0.2470
     14 C         139.0788  140.3746  164.1088 C.ar    1  UNL1        0.0356
     15 C         137.7803  141.1254  164.0873 C.ar    1  UNL1        0.0032
     16 C         137.3906  141.9149  162.8729 C.ar    1  UNL1        0.0295
     17 C         138.2992  141.9537  161.6801 C.ar    1  UNL1        0.1401
     18 F         137.9095  142.7432  160.4657 F       1  UNL1       -0.2042
     19 C         139.5976  141.2029  161.7017 C.ar    1  UNL1        0.0295
     20 C         139.9874  140.4134  162.9160 C.ar    1  UNL1        0.0032
     21 C         139.6534  140.2779  166.6407 C.ar    1  UNL1        0.0356
     22 C         140.3385  141.6111  166.6974 C.ar    1  UNL1        0.0032
     23 C         140.5234  142.3040  168.0149 C.ar    1  UNL1        0.0295
     24 C         140.0231  141.6636  169.2757 C.ar    1  UNL1        0.1401
     25 F         140.2079  142.3565  170.5932 F       1  UNL1       -0.2042
     26 C         139.3379  140.3305  169.2191 C.ar    1  UNL1        0.0295
     27 C         139.1530  139.6376  167.9016 C.ar    1  UNL1        0.0032
     28 C         144.8173  142.9473  162.8635 C.3     1  UNL1        0.1020
     29 C         143.9681  144.1121  162.4489 C.3     1  UNL1        0.1308
     30 O         144.4283  145.5125  162.7270 O.3     1  UNL1       -0.3827
     31 H         145.2874  145.4871  163.1768 H       1  UNL1        0.2104
     32 C         142.6586  143.8767  161.7561 C.3     1  UNL1        0.0570
     33 C         141.3748  144.2678  162.4259 C.ar    1  UNL1       -0.0197
     34 C         141.1203  143.8704  163.8497 C.ar    1  UNL1       -0.0042
     35 C         139.8364  144.2615  164.5195 C.ar    1  UNL1       -0.0003
     36 C         138.8070  145.0501  163.7656 C.ar    1  UNL1       -0.0000
     37 C         139.0615  145.4476  162.3417 C.ar    1  UNL1       -0.0003
     38 C         140.3454  145.0565  161.6719 C.ar    1  UNL1       -0.0042
@<TRIPOS>UNITY_ATOM_ATTR
11 1
charge 1
12 1
charge -1
@<TRIPOS>BOND
     1     2     1    1
     2     2     3    1
     3     3     4    1
     4     4     9    1
     5     9    10    1
     6    10    11    1
     7    11    12    2
     8    11    13    1
     9    13    14    1
    10    14    15   ar
    11    15    16   ar
    12    16    17   ar
    13    17    18    1
    14    17    19   ar
    15    19    20   ar
    16    13    21    1
    17    21    22   ar
    18    22    23   ar
    19    23    24   ar
    20    24    25    1
    21    24    26   ar
    22    26    27   ar
    23     4     5    1
    24     5     6    1
    25     6     7    1
    26     6     8    1
    27     8    28    1
    28    28    29    1
    29    29    30    1
    30    29    32    1
    31    32    33    1
    32    33    34   ar
    33    34    35   ar
    34    35    36   ar
    35    36    37   ar
    36    37    38   ar
    37     8     2    1
    38    38    33   ar
    39    20    14   ar
    40    27    21   ar
    41    30    31    1
@<TRIPOS>MOLECULE
*****
 38 41 0 0 0
SMALL
GASTEIGER

@<TRIPOS>ATOM
      1 C         142.7402  142.9597  159.1759 C.3     1  UNL1        0.0188
      2 C         143.1599  143.1336  160.6054 C.3     1  UNL1        0.0736
      3 C         144.1912  142.2214  161.2006 C.3     1  UNL1        0.0884
      4 N         144.6109  142.3954  162.6301 N.3     1  UNL1       -0.2660
      5 C         143.9993  143.4815  163.4645 C.3     1  UNL1        0.0884
      6 C         142.9679  144.3936  162.8694 C.3     1  UNL1        0.0736
      7 C         142.3562  145.4798  163.7037 C.3     1  UNL1        0.0188
      8 N         142.5482  144.2197  161.4398 N.3     1  UNL1       -0.2706
      9 C         145.6423  141.4831  163.2253 C.3     1  UNL1        0.1374
     10 C         145.2213  140.3680  164.1359 C.3     1  UNL1        0.2734
     11 S         144.0838  139.4709  163.7468 S.O     1  UNL1        0.0356
     12 O         144.2539  138.4863  162.6280 O.co2   1  UNL1       -0.6809
     13 C         142.7762  139.5584  164.4766 C.3     1  UNL1        0.2470
     14 C         142.7359  140.0756  165.8840 C.ar    1  UNL1        0.0356
     15 C         142.7705  139.1165  167.0368 C.ar    1  UNL1        0.0032
     16 C         142.7302  139.6336  168.4442 C.ar    1  UNL1        0.0295
     17 C         142.6554  141.1099  168.6989 C.ar    1  UNL1        0.1401
     18 F         142.6151  141.6272  170.1064 F       1  UNL1       -0.2042
     19 C         142.6207  142.0691  167.5461 C.ar    1  UNL1        0.0295
     20 C         142.6610  141.5519  166.1387 C.ar    1  UNL1        0.0032
     21 C         141.5089  139.1287  163.7989 C.ar    1  UNL1        0.0356
     22 C         141.2054  139.6000  162.4075 C.ar    1  UNL1        0.0032
     23 C         139.9381  139.1703  161.7298 C.ar    1  UNL1        0.0295
     24 C         138.9743  138.2694  162.4434 C.ar    1  UNL1        0.1401
     25 F         137.7070  137.8397  161.7657 F       1  UNL1       -0.2042
     26 C         139.2777  137.7981  163.8347 C.ar    1  UNL1        0.0295
     27 C         140.5450  138.2278  164.5125 C.ar    1  UNL1        0.0032
     28 C         141.5168  145.1319  160.8446 C.3     1  UNL1        0.1020
     29 C         140.0604  144.8929  161.1120 C.3     1  UNL1        0.1308
     30 O         139.1715  146.0371  161.5004 O.3     1  UNL1       -0.3827
     31 H         139.6923  146.8547  161.5326 H       1  UNL1        0.2104
     32 C         139.4928  143.5097  160.9910 C.3     1  UNL1        0.0570
     33 C         139.0393  142.7751  162.2177 C.ar    1  UNL1       -0.0197
     34 C         137.7586  141.9947  162.1940 C.ar    1  UNL1       -0.0042
     35 C         137.3051  141.2601  163.4206 C.ar    1  UNL1       -0.0003
     36 C         138.1323  141.3059  164.6710 C.ar    1  UNL1       -0.0000
     37 C         139.4131  142.0864  164.6948 C.ar    1  UNL1       -0.0003
     38 C         139.8666  142.8210  163.4681 C.ar    1  UNL1       -0.0042
@<TRIPOS>UNITY_ATOM_ATTR
11 1
charge 1
12 1
charge -1
@<TRIPOS>BOND
     1     2     1    1
     2     2     3    1
     3     3     4    1
     4     4     9    1
     5     9    10    1
     6    10    11    1
     7    11    12    2
     8    11    13    1
     9    13    14    1
    10    14    15   ar
    11    15    16   ar
    12    16    17   ar
    13    17    18    1
    14    17    19   ar
    15    19    20   ar
    16    13    21    1
    17    21    22   ar
    18    22    23   ar
    19    23    24   ar
    20    24    25    1
    21    24    26   ar
    22    26    27   ar
    23     4     5    1
    24     5     6    1
    25     6     7    1
    26     6     8    1
    27     8    28    1
    28    28    29    1
    29    29    30    1
    30    29    32    1
    31    32    33    1
    32    33    34   ar
    33    34    35   ar
    34    35    36   ar
    35    36    37   ar
    36    37    38   ar
    37     8     2    1
    38    38    33   ar
    39    20    14   ar
    40    27    21   ar
    41    30    31    1
@<TRIPOS>MOLECULE
*****
 38 41 0 0 0
SMALL
GASTEIGER

@<TRIPOS>ATOM
      1 C         144.3082  140.5243  161.1739 C.3     1  UNL1        0.0188
      2 C         143.9410  140.5226  162.6282 C.3     1  UNL1        0.0736
      3 C         143.3046  139.3098  163.2397 C.3     1  UNL1        0.0884
      4 N         142.9374  139.3082  164.6940 N.3     1  UNL1       -0.2660
      5 C         143.2066  140.5193  165.5369 C.3     1  UNL1        0.0884
      6 C         143.8431  141.7321  164.9255 C.3     1  UNL1        0.0736
      7 C         144.1124  142.9434  165.7684 C.3     1  UNL1        0.0188
      8 N         144.2103  141.7338  163.4711 N.3     1  UNL1       -0.2706
      9 C         142.3009  138.0952  165.3055 C.3     1  UNL1        0.1374
     10 C         141.0269  137.5478  164.7333 C.3     1  UNL1        0.2734
     11 S         139.7051  138.0829  165.1983 S.O     1  UNL1        0.0356
     12 O         138.5966  137.1372  165.5550 O.co2   1  UNL1       -0.6809
     13 C         139.4915  139.5637  165.3067 C.3     1  UNL1        0.2470
     14 C         139.6635  140.2515  166.6286 C.ar    1  UNL1        0.0356
     15 C         140.3622  141.5770  166.6990 C.ar    1  UNL1        0.0032
     16 C         140.5343  142.2648  168.0208 C.ar    1  UNL1        0.0295
     17 C         140.0076  141.6272  169.2722 C.ar    1  UNL1        0.1401
     18 F         140.1796  142.3150  170.5941 F       1  UNL1       -0.2042
     19 C         139.3089  140.3017  169.2018 C.ar    1  UNL1        0.0295
     20 C         139.1368  139.6139  167.8799 C.ar    1  UNL1        0.0032
     21 C         139.1060  140.3566  164.0932 C.ar    1  UNL1        0.0356
     22 C         140.0208  140.4022  162.9052 C.ar    1  UNL1        0.0032
     23 C         139.6353  141.1951  161.6917 C.ar    1  UNL1        0.0295
     24 C         138.3350  141.9425  161.6661 C.ar    1  UNL1        0.1401
     25 F         137.9495  142.7354  160.4526 F       1  UNL1       -0.2042
     26 C         137.4202  141.8970  162.8540 C.ar    1  UNL1        0.0295
     27 C         137.8057  141.1040  164.0676 C.ar    1  UNL1        0.0032
     28 C         144.8468  142.9467  162.8597 C.3     1  UNL1        0.1020
     29 C         143.9940  144.0984  162.4167 C.3     1  UNL1        0.1308
     30 O         144.4562  145.5066  162.6484 O.3     1  UNL1       -0.3827
     31 H         145.3189  145.4949  163.0917 H       1  UNL1        0.2104
     32 C         142.6790  143.8421  161.7421 C.3     1  UNL1        0.0570
     33 C         141.4001  144.2461  162.4139 C.ar    1  UNL1       -0.0197
     34 C         141.1329  143.8301  163.8300 C.ar    1  UNL1       -0.0042
     35 C         139.8540  144.2341  164.5018 C.ar    1  UNL1       -0.0003
     36 C         138.8424  145.0541  163.7574 C.ar    1  UNL1       -0.0000
     37 C         139.1096  145.4701  162.3411 C.ar    1  UNL1       -0.0003
     38 C         140.3885  145.0661  161.6694 C.ar    1  UNL1       -0.0042
@<TRIPOS>UNITY_ATOM_ATTR
11 1
charge 1
12 1
charge -1
@<TRIPOS>BOND
     1     2     1    1
     2     2     3    1
     3     3     4    1
     4     4     9    1
     5     9    10    1
     6    10    11    1
     7    11    12    2
     8    11    13    1
     9    13    14    1
    10    14    15   ar
    11    15    16   ar
    12    16    17   ar
    13    17    18    1
    14    17    19   ar
    15    19    20   ar
    16    13    21    1
    17    21    22   ar
    18    22    23   ar
    19    23    24   ar
    20    24    25    1
    21    24    26   ar
    22    26    27   ar
    23     4     5    1
    24     5     6    1
    25     6     7    1
    26     6     8    1
    27     8    28    1
    28    28    29    1
    29    29    30    1
    30    29    32    1
    31    32    33    1
    32    33    34   ar
    33    34    35   ar
    34    35    36   ar
    35    36    37   ar
    36    37    38   ar
    37     8     2    1
    38    38    33   ar
    39    20    14   ar
    40    27    21   ar
    41    30    31    1
