@<TRIPOS>MOLECULE
*****
 31 32 0 0 0
SMALL
GASTEIGER

@<TRIPOS>ATOM
      1 C         139.6678  140.2274  167.5883 C.ar    1  UNL1        0.0764
      2 C         140.3420  141.0682  168.6316 C.ar    1  UNL1        0.0522
      3 C         139.8143  141.0871  170.0356 C.ar    1  UNL1        0.1516
      4 N         138.6125  140.2651  170.3963 N.ar    1  UNL1       -0.1329
      5 N         137.9384  139.4243  169.3529 N.ar    1  UNL1       -0.1409
      6 C         138.4661  139.4054  167.9489 C.ar    1  UNL1        0.1691
      7 C         137.7919  138.5645  166.9056 C.2     1  UNL1        0.2635
      8 N         137.1998  137.2379  167.2790 N.am    1  UNL1       -0.3240
      9 O         137.7098  139.0504  165.4888 O.2     1  UNL1       -0.2686
     10 H         137.2537  136.9191  168.2089 H       1  UNL1        0.1453
     11 H         136.7574  136.6861  166.5942 H       1  UNL1        0.1453
     12 N         140.1955  140.2085  166.1843 N.pl3   1  UNL1       -0.2965
     13 H         140.3924  139.3503  165.7439 H       1  UNL1        0.1537
     14 C         142.0400  143.3344  164.5791 C.ar    1  UNL1        0.0941
     15 N         141.8123  142.0457  165.3120 N.ar    1  UNL1       -0.2319
     16 C         140.4231  141.4973  165.4513 C.ar    1  UNL1        0.1320
     17 C         139.2616  142.2377  164.8575 C.ar    1  UNL1        0.0375
     18 C         139.4893  143.5264  164.1245 C.ar    1  UNL1        0.0410
     19 C         140.8785  144.0748  163.9853 C.ar    1  UNL1        0.1522
     20 O         141.1062  145.3636  163.2523 O.3     1  UNL1       -0.4702
     21 C         140.0714  145.8742  162.2940 C.3     1  UNL1        0.2525
     22 C         143.4293  143.8827  164.4399 C.3     1  UNL1        0.0490
     23 C         145.2783  142.1136  163.9911 C.3     1  UNL1        0.0004
     24 C         144.6034  143.0810  164.9178 C.3     1  UNL1        0.0064
     25 N         140.4884  141.9279  171.0790 N.pl3   1  UNL1       -0.3155
     26 H         139.9483  142.4630  171.7044 H       1  UNL1        0.1483
     27 C         141.9854  141.9534  171.1694 C.3     1  UNL1        0.1052
     28 C         142.7616  143.0236  170.4606 C.3     1  UNL1        0.0866
     29 N         144.2528  142.9144  170.3414 N.3     1  UNL1       -0.3197
     30 H         144.6739  142.9833  171.2678 H       1  UNL1        0.1189
     31 H         144.6029  143.6694  169.7517 H       1  UNL1        0.1189
@<TRIPOS>BOND
     1    23    24    1
     2    24    22    1
     3    22    14    1
     4    14    15   ar
     5    15    16   ar
     6    16    12    1
     7    12     1    1
     8     1     2   ar
     9     2     3   ar
    10     3    25    1
    11    25    27    1
    12    27    28    1
    13    28    29    1
    14     3     4   ar
    15     4     5   ar
    16     5     6   ar
    17     6     7    1
    18     7     8   am
    19     7     9    2
    20    16    17   ar
    21    17    18   ar
    22    18    19   ar
    23    19    20    1
    24    20    21    1
    25    19    14   ar
    26     6     1   ar
    27    12    13    1
    28    25    26    1
    29    29    30    1
    30    29    31    1
    31     8    10    1
    32     8    11    1
@<TRIPOS>MOLECULE
*****
 31 32 0 0 0
SMALL
GASTEIGER

@<TRIPOS>ATOM
      1 C         141.0429  141.6059  168.8410 C.ar    1  UNL1        0.0764
      2 C         142.2211  142.4773  169.1610 C.ar    1  UNL1        0.0522
      3 C         142.5476  142.8028  170.5884 C.ar    1  UNL1        0.1516
      4 N         141.6958  142.2567  171.6958 N.ar    1  UNL1       -0.1329
      5 N         140.5176  141.3853  171.3758 N.ar    1  UNL1       -0.1409
      6 C         140.1911  141.0598  169.9484 C.ar    1  UNL1        0.1691
      7 C         139.0129  140.1883  169.6284 C.2     1  UNL1        0.2635
      8 N         137.9099  140.0205  170.6310 N.am    1  UNL1       -0.3240
      9 O         138.9377  139.4847  168.3059 O.2     1  UNL1       -0.2686
     10 H         137.9593  140.4824  171.4991 H       1  UNL1        0.1453
     11 H         137.1366  139.4486  170.4210 H       1  UNL1        0.1453
     12 N         140.7164  141.2804  167.4136 N.pl3   1  UNL1       -0.2965
     13 H         140.3501  140.3966  167.1816 H       1  UNL1        0.1537
     14 C         142.5292  143.4406  164.6211 C.ar    1  UNL1        0.0941
     15 N         142.2974  142.4193  165.6951 N.ar    1  UNL1       -0.2319
     16 C         140.9481  142.3017  166.3396 C.ar    1  UNL1        0.1320
     17 C         139.8305  143.2054  165.9103 C.ar    1  UNL1        0.0375
     18 C         140.0622  144.2266  164.8364 C.ar    1  UNL1        0.0410
     19 C         141.4116  144.3442  164.1918 C.ar    1  UNL1        0.1522
     20 O         141.6433  145.3655  163.1178 O.3     1  UNL1       -0.4702
     21 C         141.0182  145.1874  161.7660 C.3     1  UNL1        0.2525
     22 C         143.8785  143.5582  163.9766 C.3     1  UNL1        0.0490
     23 C         145.6501  141.7491  163.3948 C.3     1  UNL1        0.0004
     24 C         144.9937  142.6486  164.3997 C.3     1  UNL1        0.0064
     25 N         143.7257  143.6742  170.9084 N.pl3   1  UNL1       -0.3155
     26 H         143.6069  144.4781  171.4642 H       1  UNL1        0.1483
     27 C         145.0850  143.3208  170.3817 C.3     1  UNL1        0.1052
     28 C         146.3105  143.9169  171.0084 C.3     1  UNL1        0.0866
     29 N         146.9410  145.1386  170.4086 N.3     1  UNL1       -0.3197
     30 H         147.3142  144.9110  169.4870 H       1  UNL1        0.1189
     31 H         147.6978  145.4616  171.0115 H       1  UNL1        0.1189
@<TRIPOS>BOND
     1    23    24    1
     2    24    22    1
     3    22    14    1
     4    14    15   ar
     5    15    16   ar
     6    16    12    1
     7    12     1    1
     8     1     2   ar
     9     2     3   ar
    10     3    25    1
    11    25    27    1
    12    27    28    1
    13    28    29    1
    14     3     4   ar
    15     4     5   ar
    16     5     6   ar
    17     6     7    1
    18     7     8   am
    19     7     9    2
    20    16    17   ar
    21    17    18   ar
    22    18    19   ar
    23    19    20    1
    24    20    21    1
    25    19    14   ar
    26     6     1   ar
    27    12    13    1
    28    25    26    1
    29    29    30    1
    30    29    31    1
    31     8    10    1
    32     8    11    1
@<TRIPOS>MOLECULE
*****
 31 32 0 0 0
SMALL
GASTEIGER

@<TRIPOS>ATOM
      1 C         138.0040  140.7440  164.0196 C.ar    1  UNL1        0.0764
      2 C         137.8276  142.2337  164.0288 C.ar    1  UNL1        0.0522
      3 C         137.7754  142.9906  162.7348 C.ar    1  UNL1        0.1516
      4 N         137.8995  142.2580  161.4318 N.ar    1  UNL1       -0.1329
      5 N         138.0760  140.7685  161.4227 N.ar    1  UNL1       -0.1409
      6 C         138.1282  140.0115  162.7166 C.ar    1  UNL1        0.1691
      7 C         138.3047  138.5219  162.7074 C.2     1  UNL1        0.2635
      8 N         137.5629  137.6849  161.7079 N.am    1  UNL1       -0.3240
      9 O         139.2229  137.8693  163.6979 O.2     1  UNL1       -0.2686
     10 H         136.9602  138.1132  161.0578 H       1  UNL1        0.1453
     11 H         137.6787  136.7073  161.7019 H       1  UNL1        0.1453
     12 N         138.0563  139.9871  165.3135 N.pl3   1  UNL1       -0.2965
     13 H         137.2842  139.4474  165.5996 H       1  UNL1        0.1537
     14 C         141.8501  140.3917  166.4060 C.ar    1  UNL1        0.0941
     15 N         140.6214  140.3264  165.5481 N.ar    1  UNL1       -0.2319
     16 C         139.2850  140.0523  166.1716 C.ar    1  UNL1        0.1320
     17 C         139.1772  139.8435  167.6530 C.ar    1  UNL1        0.0375
     18 C         140.4058  139.9088  168.5110 C.ar    1  UNL1        0.0410
     19 C         141.7423  140.1829  167.8875 C.ar    1  UNL1        0.1522
     20 O         142.9710  140.2482  168.7455 O.3     1  UNL1       -0.4702
     21 C         143.2229  141.4519  169.6043 C.3     1  UNL1        0.2525
     22 C         143.1865  140.6658  165.7825 C.3     1  UNL1        0.0490
     23 C         145.1219  139.9502  164.2039 C.3     1  UNL1        0.0004
     24 C         143.7739  139.6888  164.8077 C.3     1  UNL1        0.0064
     25 N         137.5989  144.4802  162.7439 N.pl3   1  UNL1       -0.3155
     26 H         136.7008  144.8689  162.8516 H       1  UNL1        0.1483
     27 C         138.7909  145.3775  162.5890 C.3     1  UNL1        0.1052
     28 C         140.1281  144.9455  163.1136 C.3     1  UNL1        0.0866
     29 N         141.2808  145.9054  163.1101 N.3     1  UNL1       -0.3197
     30 H         141.5378  146.1246  162.1477 H       1  UNL1        0.1189
     31 H         142.0772  145.4821  163.5866 H       1  UNL1        0.1189
@<TRIPOS>BOND
     1    23    24    1
     2    24    22    1
     3    22    14    1
     4    14    15   ar
     5    15    16   ar
     6    16    12    1
     7    12     1    1
     8     1     2   ar
     9     2     3   ar
    10     3    25    1
    11    25    27    1
    12    27    28    1
    13    28    29    1
    14     3     4   ar
    15     4     5   ar
    16     5     6   ar
    17     6     7    1
    18     7     8   am
    19     7     9    2
    20    16    17   ar
    21    17    18   ar
    22    18    19   ar
    23    19    20    1
    24    20    21    1
    25    19    14   ar
    26     6     1   ar
    27    12    13    1
    28    25    26    1
    29    29    30    1
    30    29    31    1
    31     8    10    1
    32     8    11    1
@<TRIPOS>MOLECULE
*****
 31 32 0 0 0
SMALL
GASTEIGER

@<TRIPOS>ATOM
      1 C         140.1239  140.2034  167.6242 C.ar    1  UNL1        0.0764
      2 C         139.8844  139.6315  166.2583 C.ar    1  UNL1        0.0522
      3 C         138.6901  138.7587  166.0095 C.ar    1  UNL1        0.1516
      4 N         137.7352  138.4579  167.1266 N.ar    1  UNL1       -0.1329
      5 N         137.9747  139.0297  168.4924 N.ar    1  UNL1       -0.1409
      6 C         139.1690  139.9025  168.7412 C.ar    1  UNL1        0.1691
      7 C         139.4085  140.4744  170.1071 C.2     1  UNL1        0.2635
      8 N         139.7445  139.5658  171.2523 N.am    1  UNL1       -0.3240
      9 O         139.3120  141.9549  170.3278 O.2     1  UNL1       -0.2686
     10 H         139.8079  138.5941  171.1075 H       1  UNL1        0.1453
     11 H         139.9017  139.9411  172.1488 H       1  UNL1        0.1453
     12 N         141.3182  141.0761  167.8730 N.pl3   1  UNL1       -0.2965
     13 H         141.7599  141.0669  168.7528 H       1  UNL1        0.1537
     14 C         141.4077  143.6634  164.8650 C.ar    1  UNL1        0.0941
     15 N         140.8865  142.7766  165.9567 N.ar    1  UNL1       -0.2319
     16 C         141.8395  141.9630  166.7813 C.ar    1  UNL1        0.1320
     17 C         143.3136  142.0363  166.5142 C.ar    1  UNL1        0.0375
     18 C         143.8349  142.9231  165.4226 C.ar    1  UNL1        0.0410
     19 C         142.8819  143.7367  164.5980 C.ar    1  UNL1        0.1522
     20 O         143.4032  144.6236  163.5063 O.3     1  UNL1       -0.4702
     21 C         144.3115  144.0618  162.4531 C.3     1  UNL1        0.2525
     22 C         140.4548  144.4770  164.0404 C.3     1  UNL1        0.0490
     23 C         137.9058  144.0677  164.3326 C.3     1  UNL1        0.0004
     24 C         139.1303  144.8878  164.6121 C.3     1  UNL1        0.0064
     25 N         138.4506  138.1868  164.6436 N.pl3   1  UNL1       -0.3155
     26 H         137.9369  137.3531  164.5422 H       1  UNL1        0.1483
     27 C         138.9937  138.8852  163.4324 C.3     1  UNL1        0.1052
     28 C         138.0739  139.6667  162.5417 C.3     1  UNL1        0.0866
     29 N         137.2822  138.9635  161.4793 N.3     1  UNL1       -0.3197
     30 H         137.9173  138.5835  160.7774 H       1  UNL1        0.1189
     31 H         136.6436  139.6249  161.0374 H       1  UNL1        0.1189
@<TRIPOS>BOND
     1    23    24    1
     2    24    22    1
     3    22    14    1
     4    14    15   ar
     5    15    16   ar
     6    16    12    1
     7    12     1    1
     8     1     2   ar
     9     2     3   ar
    10     3    25    1
    11    25    27    1
    12    27    28    1
    13    28    29    1
    14     3     4   ar
    15     4     5   ar
    16     5     6   ar
    17     6     7    1
    18     7     8   am
    19     7     9    2
    20    16    17   ar
    21    17    18   ar
    22    18    19   ar
    23    19    20    1
    24    20    21    1
    25    19    14   ar
    26     6     1   ar
    27    12    13    1
    28    25    26    1
    29    29    30    1
    30    29    31    1
    31     8    10    1
    32     8    11    1
@<TRIPOS>MOLECULE
*****
 31 32 0 0 0
SMALL
GASTEIGER

@<TRIPOS>ATOM
      1 C         142.5217  142.3532  163.4007 C.ar    1  UNL1        0.0764
      2 C         141.5153  143.4655  163.4152 C.ar    1  UNL1        0.0522
      3 C         141.9346  144.8610  163.0590 C.ar    1  UNL1        0.1516
      4 N         143.3603  145.1442  162.6883 N.ar    1  UNL1       -0.1329
      5 N         144.3666  144.0319  162.6739 N.ar    1  UNL1       -0.1409
      6 C         143.9473  142.6365  163.0301 C.ar    1  UNL1        0.1691
      7 C         144.9537  141.5242  163.0157 C.2     1  UNL1        0.2635
      8 N         146.3223  141.7436  163.5891 N.am    1  UNL1       -0.3240
      9 O         144.5915  140.1926  162.4279 O.2     1  UNL1       -0.2686
     10 H         146.5600  142.6176  163.9749 H       1  UNL1        0.1453
     11 H         146.9828  141.0136  163.5796 H       1  UNL1        0.1453
     12 N         142.1024  140.9578  163.7569 N.pl3   1  UNL1       -0.2965
     13 H         142.1454  140.2432  163.0811 H       1  UNL1        0.1537
     14 C         142.0227  140.6014  167.7087 C.ar    1  UNL1        0.0941
     15 N         142.5075  140.9081  166.3228 N.ar    1  UNL1       -0.2319
     16 C         141.6176  140.6511  165.1430 C.ar    1  UNL1        0.1320
     17 C         140.2430  140.0874  165.3491 C.ar    1  UNL1        0.0375
     18 C         139.7582  139.7807  166.7350 C.ar    1  UNL1        0.0410
     19 C         140.6481  140.0377  167.9149 C.ar    1  UNL1        0.1522
     20 O         140.1633  139.7310  169.3009 O.3     1  UNL1       -0.4702
     21 C         139.0717  140.5573  169.9136 C.3     1  UNL1        0.2525
     22 C         142.9126  140.8584  168.8886 C.3     1  UNL1        0.0490
     23 C         142.2774  143.0797  170.0769 C.3     1  UNL1        0.0004
     24 C         143.2527  142.2662  169.2789 C.3     1  UNL1        0.0064
     25 N         140.9283  145.9732  163.0734 N.pl3   1  UNL1       -0.3155
     26 H         140.8944  146.5965  163.8347 H       1  UNL1        0.1483
     27 C         139.9737  146.1357  161.9279 C.3     1  UNL1        0.1052
     28 C         140.3049  145.5510  160.5868 C.3     1  UNL1        0.0866
     29 N         139.5703  144.3393  160.0947 N.3     1  UNL1       -0.3197
     30 H         139.7945  143.5412  160.6890 H       1  UNL1        0.1189
     31 H         139.8509  144.1380  159.1349 H       1  UNL1        0.1189
@<TRIPOS>BOND
     1    23    24    1
     2    24    22    1
     3    22    14    1
     4    14    15   ar
     5    15    16   ar
     6    16    12    1
     7    12     1    1
     8     1     2   ar
     9     2     3   ar
    10     3    25    1
    11    25    27    1
    12    27    28    1
    13    28    29    1
    14     3     4   ar
    15     4     5   ar
    16     5     6   ar
    17     6     7    1
    18     7     8   am
    19     7     9    2
    20    16    17   ar
    21    17    18   ar
    22    18    19   ar
    23    19    20    1
    24    20    21    1
    25    19    14   ar
    26     6     1   ar
    27    12    13    1
    28    25    26    1
    29    29    30    1
    30    29    31    1
    31     8    10    1
    32     8    11    1
@<TRIPOS>MOLECULE
*****
 31 32 0 0 0
SMALL
GASTEIGER

@<TRIPOS>ATOM
      1 C         141.0674  140.2086  167.0785 C.ar    1  UNL1        0.0764
      2 C         141.8267  139.9349  165.8141 C.ar    1  UNL1        0.0522
      3 C         143.1076  139.1559  165.8622 C.ar    1  UNL1        0.1516
      4 N         143.6293  138.6506  167.1748 N.ar    1  UNL1       -0.1329
      5 N         142.8700  138.9243  168.4391 N.ar    1  UNL1       -0.1409
      6 C         141.5890  139.7033  168.3909 C.ar    1  UNL1        0.1691
      7 C         140.8297  139.9770  169.6553 C.2     1  UNL1        0.2635
      8 N         141.5673  140.3470  170.9080 N.am    1  UNL1       -0.3240
      9 O         139.3329  139.8808  169.6670 O.2     1  UNL1       -0.2686
     10 H         142.5497  140.4102  170.9003 H       1  UNL1        0.1453
     11 H         141.0689  140.5266  171.7378 H       1  UNL1        0.1453
     12 N         139.7864  140.9876  167.0304 N.pl3   1  UNL1       -0.2965
     13 H         139.2906  141.1715  167.8608 H       1  UNL1        0.1537
     14 C         139.1737  143.3201  163.8785 C.ar    1  UNL1        0.0941
     15 N         139.6993  142.8213  165.1919 N.ar    1  UNL1       -0.2319
     16 C         139.2608  141.4864  165.7169 C.ar    1  UNL1        0.1320
     17 C         138.2969  140.6502  164.9286 C.ar    1  UNL1        0.0375
     18 C         137.7714  141.1489  163.6152 C.ar    1  UNL1        0.0410
     19 C         138.2098  142.4839  163.0902 C.ar    1  UNL1        0.1522
     20 O         137.6842  142.9827  161.7767 O.3     1  UNL1       -0.4702
     21 C         138.3577  142.5809  160.4981 C.3     1  UNL1        0.2525
     22 C         139.6122  144.6550  163.3535 C.3     1  UNL1        0.0490
     23 C         142.0699  145.4043  163.7382 C.3     1  UNL1        0.0004
     24 C         141.0101  144.8371  162.8410 C.3     1  UNL1        0.0064
     25 N         143.8669  138.8822  164.5980 N.pl3   1  UNL1       -0.3155
     26 H         143.5574  138.1812  163.9798 H       1  UNL1        0.1483
     27 C         145.0978  139.6764  164.2755 C.3     1  UNL1        0.1052
     28 C         144.9725  141.0907  163.7918 C.3     1  UNL1        0.0866
     29 N         146.1748  141.8089  163.2545 N.3     1  UNL1       -0.3197
     30 H         146.8531  141.9443  164.0041 H       1  UNL1        0.1189
     31 H         145.8915  142.7162  162.8842 H       1  UNL1        0.1189
@<TRIPOS>BOND
     1    23    24    1
     2    24    22    1
     3    22    14    1
     4    14    15   ar
     5    15    16   ar
     6    16    12    1
     7    12     1    1
     8     1     2   ar
     9     2     3   ar
    10     3    25    1
    11    25    27    1
    12    27    28    1
    13    28    29    1
    14     3     4   ar
    15     4     5   ar
    16     5     6   ar
    17     6     7    1
    18     7     8   am
    19     7     9    2
    20    16    17   ar
    21    17    18   ar
    22    18    19   ar
    23    19    20    1
    24    20    21    1
    25    19    14   ar
    26     6     1   ar
    27    12    13    1
    28    25    26    1
    29    29    30    1
    30    29    31    1
    31     8    10    1
    32     8    11    1
@<TRIPOS>MOLECULE
*****
 31 32 0 0 0
SMALL
GASTEIGER

@<TRIPOS>ATOM
      1 C         140.9482  143.9862  163.7804 C.ar    1  UNL1        0.0764
      2 C         142.3005  143.4622  164.1636 C.ar    1  UNL1        0.0522
      3 C         143.4554  143.6034  163.2169 C.ar    1  UNL1        0.1516
      4 N         143.2580  144.2686  161.8870 N.ar    1  UNL1       -0.1329
      5 N         141.9058  144.7925  161.5038 N.ar    1  UNL1       -0.1409
      6 C         140.7509  144.6513  162.4505 C.ar    1  UNL1        0.1691
      7 C         139.3986  145.1753  162.0672 C.2     1  UNL1        0.2635
      8 N         139.2700  146.5315  161.4396 N.am    1  UNL1       -0.3240
      9 O         138.1749  144.3429  162.3117 O.2     1  UNL1       -0.2686
     10 H         140.0731  147.0778  161.2791 H       1  UNL1        0.1453
     11 H         138.3824  146.8754  161.1880 H       1  UNL1        0.1453
     12 N         139.7933  143.8450  164.7271 N.pl3   1  UNL1       -0.2965
     13 H         139.0162  144.4443  164.6484 H       1  UNL1        0.1537
     14 C         139.2278  140.3959  166.6070 C.ar    1  UNL1        0.0941
     15 N         139.1987  141.4502  165.5404 N.ar    1  UNL1       -0.2319
     16 C         139.8224  142.7907  165.7937 C.ar    1  UNL1        0.1320
     17 C         140.4752  143.0768  167.1135 C.ar    1  UNL1        0.0375
     18 C         140.5043  142.0225  168.1800 C.ar    1  UNL1        0.0410
     19 C         139.8806  140.6821  167.9268 C.ar    1  UNL1        0.1522
     20 O         139.9098  139.6277  168.9934 O.3     1  UNL1       -0.4702
     21 C         140.9477  139.6834  170.0748 C.3     1  UNL1        0.2525
     22 C         138.6042  139.0554  166.3537 C.3     1  UNL1        0.0490
     23 C         140.5717  138.1041  164.9488 C.3     1  UNL1        0.0004
     24 C         139.1008  138.1978  165.2278 C.3     1  UNL1        0.0064
     25 N         144.8077  143.0795  163.6001 N.pl3   1  UNL1       -0.3155
     26 H         145.3830  143.5990  164.2070 H       1  UNL1        0.1483
     27 C         145.2834  141.7641  163.0586 C.3     1  UNL1        0.1052
     28 C         145.2321  140.5362  163.9186 C.3     1  UNL1        0.0866
     29 N         144.8508  139.2155  163.3184 N.3     1  UNL1       -0.3197
     30 H         143.8787  139.2495  163.0114 H       1  UNL1        0.1189
     31 H         144.9613  138.4801  164.0166 H       1  UNL1        0.1189
@<TRIPOS>BOND
     1    23    24    1
     2    24    22    1
     3    22    14    1
     4    14    15   ar
     5    15    16   ar
     6    16    12    1
     7    12     1    1
     8     1     2   ar
     9     2     3   ar
    10     3    25    1
    11    25    27    1
    12    27    28    1
    13    28    29    1
    14     3     4   ar
    15     4     5   ar
    16     5     6   ar
    17     6     7    1
    18     7     8   am
    19     7     9    2
    20    16    17   ar
    21    17    18   ar
    22    18    19   ar
    23    19    20    1
    24    20    21    1
    25    19    14   ar
    26     6     1   ar
    27    12    13    1
    28    25    26    1
    29    29    30    1
    30    29    31    1
    31     8    10    1
    32     8    11    1
@<TRIPOS>MOLECULE
*****
 31 32 0 0 0
SMALL
GASTEIGER

@<TRIPOS>ATOM
      1 C         143.0841  143.0080  164.1245 C.ar    1  UNL1        0.0764
      2 C         142.0810  144.1217  164.0655 C.ar    1  UNL1        0.0522
      3 C         141.8893  144.8917  162.7926 C.ar    1  UNL1        0.1516
      4 N         142.7008  144.5481  161.5787 N.ar    1  UNL1       -0.1329
      5 N         143.7040  143.4344  161.6378 N.ar    1  UNL1       -0.1409
      6 C         143.8956  142.6644  162.9107 C.ar    1  UNL1        0.1691
      7 C         144.8988  141.5507  162.9697 C.2     1  UNL1        0.2635
      8 N         146.2670  141.8027  163.5304 N.am    1  UNL1       -0.3240
      9 O         144.5336  140.1850  162.4681 O.2     1  UNL1       -0.2686
     10 H         146.5067  142.6990  163.8596 H       1  UNL1        0.1453
     11 H         146.9254  141.0718  163.5691 H       1  UNL1        0.1453
     12 N         143.2758  142.2379  165.3974 N.pl3   1  UNL1       -0.2965
     13 H         144.1565  142.2254  165.8373 H       1  UNL1        0.1537
     14 C         140.7897  140.7169  168.0912 C.ar    1  UNL1        0.0941
     15 N         141.9399  141.4678  167.4885 N.ar    1  UNL1       -0.2319
     16 C         142.1256  141.4870  166.0001 C.ar    1  UNL1        0.1320
     17 C         141.1611  140.7553  165.1145 C.ar    1  UNL1        0.0375
     18 C         140.0110  140.0044  165.7172 C.ar    1  UNL1        0.0410
     19 C         139.8253  139.9852  167.2055 C.ar    1  UNL1        0.1522
     20 O         138.6751  139.2343  167.8082 O.3     1  UNL1       -0.4702
     21 C         137.7073  138.5073  166.9223 C.3     1  UNL1        0.2525
     22 C         140.6040  140.6977  169.5795 C.3     1  UNL1        0.0490
     23 C         142.4474  138.9301  170.0562 C.3     1  UNL1        0.0004
     24 C         141.6889  140.1583  170.4638 C.3     1  UNL1        0.0064
     25 N         140.8862  146.0053  162.7335 N.pl3   1  UNL1       -0.3155
     26 H         141.1352  146.9087  163.0355 H       1  UNL1        0.1483
     27 C         139.5037  145.7426  162.2143 C.3     1  UNL1        0.1052
     28 C         138.6215  144.7433  162.9022 C.3     1  UNL1        0.0866
     29 N         137.7075  143.8692  162.0957 N.3     1  UNL1       -0.3197
     30 H         136.9953  144.4449  161.6465 H       1  UNL1        0.1189
     31 H         137.2580  143.1896  162.7093 H       1  UNL1        0.1189
@<TRIPOS>BOND
     1    23    24    1
     2    24    22    1
     3    22    14    1
     4    14    15   ar
     5    15    16   ar
     6    16    12    1
     7    12     1    1
     8     1     2   ar
     9     2     3   ar
    10     3    25    1
    11    25    27    1
    12    27    28    1
    13    28    29    1
    14     3     4   ar
    15     4     5   ar
    16     5     6   ar
    17     6     7    1
    18     7     8   am
    19     7     9    2
    20    16    17   ar
    21    17    18   ar
    22    18    19   ar
    23    19    20    1
    24    20    21    1
    25    19    14   ar
    26     6     1   ar
    27    12    13    1
    28    25    26    1
    29    29    30    1
    30    29    31    1
    31     8    10    1
    32     8    11    1
@<TRIPOS>MOLECULE
*****
 31 32 0 0 0
SMALL
GASTEIGER

@<TRIPOS>ATOM
      1 C         141.7499  139.9533  167.2917 C.ar    1  UNL1        0.0764
      2 C         140.6113  139.8245  166.3237 C.ar    1  UNL1        0.0522
      3 C         139.2097  139.6601  166.8321 C.ar    1  UNL1        0.1516
      4 N         138.9467  139.6244  168.3085 N.ar    1  UNL1       -0.1329
      5 N         140.0854  139.7532  169.2764 N.ar    1  UNL1       -0.1409
      6 C         141.4870  139.9176  168.7680 C.ar    1  UNL1        0.1691
      7 C         142.6256  140.0464  169.7360 C.2     1  UNL1        0.2635
      8 N         143.0003  138.8876  170.6116 N.am    1  UNL1       -0.3240
      9 O         143.3895  141.3340  169.8283 O.2     1  UNL1       -0.2686
     10 H         142.4989  138.0426  170.5510 H       1  UNL1        0.1453
     11 H         143.7476  138.9722  171.2470 H       1  UNL1        0.1453
     12 N         143.1516  140.1178  166.7833 N.pl3   1  UNL1       -0.2965
     13 H         143.9070  140.1211  167.4146 H       1  UNL1        0.1537
     14 C         143.3855  141.7527  163.1747 C.ar    1  UNL1        0.0941
     15 N         143.1349  141.5933  164.6449 N.ar    1  UNL1       -0.2319
     16 C         143.4022  140.2771  165.3130 C.ar    1  UNL1        0.1320
     17 C         143.9200  139.1203  164.5107 C.ar    1  UNL1        0.0375
     18 C         144.1706  139.2797  163.0404 C.ar    1  UNL1        0.0410
     19 C         143.9034  140.5959  162.3724 C.ar    1  UNL1        0.1522
     20 O         144.1540  140.7553  160.9021 O.3     1  UNL1       -0.4702
     21 C         143.6758  139.7069  159.9418 C.3     1  UNL1        0.2525
     22 C         143.1183  143.0689  162.5066 C.3     1  UNL1        0.0490
     23 C         143.6041  145.2360  163.8548 C.3     1  UNL1        0.0004
     24 C         143.9977  144.2491  162.7960 C.3     1  UNL1        0.0064
     25 N         138.0711  139.5313  165.8642 N.pl3   1  UNL1       -0.3155
     26 H         137.1719  139.2981  166.1901 H       1  UNL1        0.1483
     27 C         138.3025  139.7579  164.3996 C.3     1  UNL1        0.1052
     28 C         137.9971  141.0940  163.7899 C.3     1  UNL1        0.0866
     29 N         136.7213  141.2965  163.0275 N.3     1  UNL1       -0.3197
     30 H         136.7345  140.7231  162.1841 H       1  UNL1        0.1189
     31 H         136.6319  142.2792  162.7692 H       1  UNL1        0.1189
@<TRIPOS>BOND
     1    23    24    1
     2    24    22    1
     3    22    14    1
     4    14    15   ar
     5    15    16   ar
     6    16    12    1
     7    12     1    1
     8     1     2   ar
     9     2     3   ar
    10     3    25    1
    11    25    27    1
    12    27    28    1
    13    28    29    1
    14     3     4   ar
    15     4     5   ar
    16     5     6   ar
    17     6     7    1
    18     7     8   am
    19     7     9    2
    20    16    17   ar
    21    17    18   ar
    22    18    19   ar
    23    19    20    1
    24    20    21    1
    25    19    14   ar
    26     6     1   ar
    27    12    13    1
    28    25    26    1
    29    29    30    1
    30    29    31    1
    31     8    10    1
    32     8    11    1
