@<TRIPOS>MOLECULE
*****
 43 48 0 0 0
SMALL
GASTEIGER

@<TRIPOS>ATOM
      1 O         137.3209  141.6073  162.0906 O.2     1  UNL1       -0.2733
      2 C         138.0801  142.8974  161.9940 C.2     1  UNL1        0.2425
      3 N         139.2474  143.0124  161.0590 N.am    1  UNL1       -0.3018
      4 H         139.7457  143.8591  160.9956 H       1  UNL1        0.1495
      5 C         139.6554  141.8374  160.2207 C.3     1  UNL1        0.1035
      6 C         140.4705  140.6001  160.4539 C.3     1  UNL1        0.0933
      7 N         140.2324  140.1757  159.0350 N.3     1  UNL1       -0.2711
      8 C         139.4172  141.4130  158.8017 C.3     1  UNL1        0.0933
      9 C         140.6404  139.0006  158.1967 C.3     1  UNL1        0.0576
     10 C         142.0394  138.4666  158.2842 C.3     1  UNL1        0.0163
     11 C         142.4474  137.2915  157.4458 C.3     1  UNL1        0.0057
     12 C         141.4565  136.6505  156.5200 C.3     1  UNL1        0.0225
     13 C         140.0575  137.1847  156.4326 C.3     1  UNL1        0.0057
     14 C         139.6495  138.3596  157.2709 C.3     1  UNL1        0.0163
     15 C         141.8644  135.4755  155.6817 C.ar    1  UNL1       -0.0193
     16 C         141.5922  135.4762  154.2065 C.ar    1  UNL1       -0.0010
     17 C         142.0001  134.3012  153.3680 C.ar    1  UNL1        0.0399
     18 C         142.6801  133.1256  154.0047 C.ar    1  UNL1        0.1764
     19 C         142.9523  133.1249  155.4798 C.ar    1  UNL1        0.1761
     20 C         142.5444  134.2999  156.3183 C.ar    1  UNL1        0.0359
     21 O         143.6338  131.8339  155.8248 O.3     1  UNL1       -0.4346
     22 C         143.7828  131.0368  154.5629 C.3     1  UNL1        0.4294
     23 O         143.1934  131.8350  153.4380 O.3     1  UNL1       -0.4346
     24 C         137.6721  144.0724  162.8323 C.3     1  UNL1        0.1747
     25 N         138.2780  144.2716  164.1900 N.pl3   1  UNL1       -0.3093
     26 H         137.8058  144.8099  164.8657 H       1  UNL1        0.1487
     27 C         139.6033  143.6505  164.5183 C.ar    1  UNL1        0.1500
     28 N         140.9480  144.2840  164.3166 N.ar    1  UNL1       -0.1543
     29 N         141.9924  143.3119  164.7795 N.ar    1  UNL1       -0.2471
     30 C         141.2932  142.0777  165.2674 C.ar    1  UNL1        0.0807
     31 C         141.8103  140.7904  165.8378 C.ar    1  UNL1        0.0188
     32 C         140.8508  139.7124  166.2467 C.ar    1  UNL1        0.0054
     33 C         139.3743  139.9217  166.0853 C.ar    1  UNL1        0.0716
     34 C         138.8572  141.2090  165.5149 C.ar    1  UNL1        0.0082
     35 C         139.8167  142.2870  165.1060 C.ar    1  UNL1        0.0503
     36 C         138.4148  138.8436  166.4942 C.3     1  UNL1        0.4186
     37 F         137.4554  137.7655  166.9032 F       1  UNL1       -0.1659
     38 F         138.4316  138.2985  165.0969 F       1  UNL1       -0.1659
     39 F         138.3980  139.3886  167.8915 F       1  UNL1       -0.1659
     40 C         143.4755  143.5349  164.7584 C.3     1  UNL1        0.1591
     41 C         144.0475  144.7054  164.0149 C.3     1  UNL1        0.1635
     42 O         143.4031  145.1742  162.7441 O.3     1  UNL1       -0.3799
     43 H         143.4944  144.4892  162.0634 H       1  UNL1        0.2105
@<TRIPOS>BOND
     1     1     2    2
     2     2    24    1
     3    24    25    1
     4    25    27    1
     5    27    28   ar
     6    28    29   ar
     7    29    40    1
     8    40    41    1
     9    41    42    1
    10    29    30   ar
    11    30    31   ar
    12    31    32   ar
    13    32    33   ar
    14    33    36    1
    15    36    37    1
    16    36    38    1
    17    36    39    1
    18    33    34   ar
    19    34    35   ar
    20     2     3   am
    21     3     5    1
    22     5     6    1
    23     6     7    1
    24     9     7    1
    25     9    10    1
    26    10    11    1
    27    11    12    1
    28    12    15    1
    29    15    16   ar
    30    16    17   ar
    31    17    18   ar
    32    18    19   ar
    33    19    20   ar
    34    19    21    1
    35    21    22    1
    36    22    23    1
    37    12    13    1
    38    13    14    1
    39     7     8    1
    40    35    27   ar
    41     8     5    1
    42    35    30   ar
    43    14     9    1
    44    20    15   ar
    45    23    18    1
    46    25    26    1
    47    42    43    1
    48     3     4    1
@<TRIPOS>MOLECULE
*****
 43 48 0 0 0
SMALL
GASTEIGER

@<TRIPOS>ATOM
      1 O         142.8748  142.9114  158.7177 O.2     1  UNL1       -0.2733
      2 C         141.4656  143.1704  159.1617 C.2     1  UNL1        0.2425
      3 N         140.4156  142.1150  158.9786 N.am    1  UNL1       -0.3018
      4 H         139.4907  142.2850  159.2700 H       1  UNL1        0.1495
      5 C         140.7748  140.8005  158.3516 C.3     1  UNL1        0.1035
      6 C         141.2645  140.3679  157.0015 C.3     1  UNL1        0.0933
      7 N         141.2828  138.9415  157.4650 N.3     1  UNL1       -0.2711
      8 C         140.7931  139.3740  158.8153 C.3     1  UNL1        0.0933
      9 C         141.6420  137.6270  156.8380 C.3     1  UNL1        0.0576
     10 C         140.6661  136.9366  155.9320 C.3     1  UNL1        0.0163
     11 C         141.0254  135.6221  155.3050 C.3     1  UNL1        0.0057
     12 C         142.3605  134.9980  155.5841 C.3     1  UNL1        0.0225
     13 C         143.3364  135.6885  156.4901 C.3     1  UNL1        0.0057
     14 C         142.9772  137.0029  157.1171 C.3     1  UNL1        0.0163
     15 C         142.7198  133.6836  154.9571 C.ar    1  UNL1       -0.0193
     16 C         142.1626  133.3162  153.6138 C.ar    1  UNL1       -0.0010
     17 C         142.5219  132.0017  152.9867 C.ar    1  UNL1        0.0399
     18 C         143.4384  131.0547  153.7031 C.ar    1  UNL1        0.1764
     19 C         143.9956  131.4221  155.0464 C.ar    1  UNL1        0.1761
     20 C         143.6363  132.7365  155.6734 C.ar    1  UNL1        0.0359
     21 O         144.8683  130.2938  155.5106 O.3     1  UNL1       -0.4346
     22 C         144.8504  129.2292  154.4541 C.3     1  UNL1        0.4294
     23 O         143.9667  129.6994  153.3370 O.3     1  UNL1       -0.4346
     24 C         141.1063  144.4848  159.7886 C.3     1  UNL1        0.1747
     25 N         142.0291  145.1158  160.7890 N.pl3   1  UNL1       -0.3093
     26 H         142.3667  146.0285  160.6401 H       1  UNL1        0.1487
     27 C         142.4374  144.3560  162.0162 C.ar    1  UNL1        0.1500
     28 N         143.7698  143.7075  162.2491 N.ar    1  UNL1       -0.1543
     29 N         143.7408  143.0620  163.6028 N.ar    1  UNL1       -0.2471
     30 C         142.3905  143.3116  164.2066 C.ar    1  UNL1        0.0807
     31 C         141.7904  142.9139  165.5225 C.ar    1  UNL1        0.0188
     32 C         140.3848  143.3160  165.8578 C.ar    1  UNL1        0.0054
     33 C         139.5792  144.1157  164.8772 C.ar    1  UNL1        0.0716
     34 C         140.1793  144.5134  163.5613 C.ar    1  UNL1        0.0082
     35 C         141.5849  144.1113  163.2260 C.ar    1  UNL1        0.0503
     36 C         138.1735  144.5178  165.2126 C.3     1  UNL1        0.4186
     37 F         136.7679  144.9198  165.5480 F       1  UNL1       -0.1659
     38 F         138.6813  145.3306  166.3665 F       1  UNL1       -0.1659
     39 F         137.6658  143.7050  164.0588 F       1  UNL1       -0.1659
     40 C         144.8647  142.3007  164.2408 C.3     1  UNL1        0.1591
     41 C         145.6548  141.3132  163.4340 C.3     1  UNL1        0.1635
     42 O         145.1156  140.8096  162.1280 O.3     1  UNL1       -0.3799
     43 H         144.3160  140.2847  162.2891 H       1  UNL1        0.2105
@<TRIPOS>BOND
     1     1     2    2
     2     2    24    1
     3    24    25    1
     4    25    27    1
     5    27    28   ar
     6    28    29   ar
     7    29    40    1
     8    40    41    1
     9    41    42    1
    10    29    30   ar
    11    30    31   ar
    12    31    32   ar
    13    32    33   ar
    14    33    36    1
    15    36    37    1
    16    36    38    1
    17    36    39    1
    18    33    34   ar
    19    34    35   ar
    20     2     3   am
    21     3     5    1
    22     5     6    1
    23     6     7    1
    24     9     7    1
    25     9    10    1
    26    10    11    1
    27    11    12    1
    28    12    15    1
    29    15    16   ar
    30    16    17   ar
    31    17    18   ar
    32    18    19   ar
    33    19    20   ar
    34    19    21    1
    35    21    22    1
    36    22    23    1
    37    12    13    1
    38    13    14    1
    39     7     8    1
    40    35    27   ar
    41     8     5    1
    42    35    30   ar
    43    14     9    1
    44    20    15   ar
    45    23    18    1
    46    25    26    1
    47    42    43    1
    48     3     4    1
@<TRIPOS>MOLECULE
*****
 43 48 0 0 0
SMALL
GASTEIGER

@<TRIPOS>ATOM
      1 O         142.7561  143.8682  159.0653 O.2     1  UNL1       -0.2733
      2 C         141.3223  144.2790  159.2252 C.2     1  UNL1        0.2425
      3 N         140.2238  143.3154  158.8865 N.am    1  UNL1       -0.3018
      4 H         139.2828  143.5851  158.9914 H       1  UNL1        0.1495
      5 C         140.5591  141.9410  158.3879 C.3     1  UNL1        0.1035
      6 C         141.2110  141.3899  157.1546 C.3     1  UNL1        0.0933
      7 N         141.0332  139.9973  157.6829 N.3     1  UNL1       -0.2711
      8 C         140.3813  140.5484  158.9162 C.3     1  UNL1        0.0933
      9 C         141.3685  138.6229  157.1843 C.3     1  UNL1        0.0576
     10 C         140.4000  137.8862  156.3071 C.3     1  UNL1        0.0163
     11 C         140.7353  136.5118  155.8085 C.3     1  UNL1        0.0057
     12 C         142.0391  135.8740  156.1871 C.3     1  UNL1        0.0225
     13 C         143.0076  136.6107  157.0642 C.3     1  UNL1        0.0057
     14 C         142.6723  137.9851  157.5628 C.3     1  UNL1        0.0163
     15 C         142.3745  134.4997  155.6885 C.ar    1  UNL1       -0.0193
     16 C         141.5026  133.8412  154.6607 C.ar    1  UNL1       -0.0010
     17 C         141.8379  132.4668  154.1621 C.ar    1  UNL1        0.0399
     18 C         143.0451  131.7509  154.6913 C.ar    1  UNL1        0.1764
     19 C         143.9169  132.4093  155.7191 C.ar    1  UNL1        0.1761
     20 C         143.5816  133.7837  156.2177 C.ar    1  UNL1        0.0359
     21 O         145.0333  131.4649  156.0535 O.3     1  UNL1       -0.4346
     22 C         144.8514  130.2228  155.2324 C.3     1  UNL1        0.4294
     23 O         143.6226  130.3996  154.3905 O.3     1  UNL1       -0.4346
     24 C         140.9870  145.6534  159.7238 C.3     1  UNL1        0.1747
     25 N         140.4591  145.8382  161.1157 N.pl3   1  UNL1       -0.3093
     26 H         140.4084  146.7401  161.5072 H       1  UNL1        0.1487
     27 C         140.0086  144.6489  161.9110 C.ar    1  UNL1        0.1500
     28 N         138.7136  143.9119  161.7381 N.ar    1  UNL1       -0.1543
     29 N         138.6786  142.7953  162.7391 N.ar    1  UNL1       -0.2471
     30 C         139.9519  142.8423  163.5307 C.ar    1  UNL1        0.0807
     31 C         140.4690  141.9899  164.6514 C.ar    1  UNL1        0.0188
     32 C         141.8081  142.2831  165.2602 C.ar    1  UNL1        0.0054
     33 C         142.6301  143.4287  164.7484 C.ar    1  UNL1        0.0716
     34 C         142.1130  144.2811  163.6277 C.ar    1  UNL1        0.0082
     35 C         140.7739  143.9879  163.0189 C.ar    1  UNL1        0.0503
     36 C         143.9693  143.7220  165.3573 C.3     1  UNL1        0.4186
     37 F         145.3084  144.0151  165.9663 F       1  UNL1       -0.1659
     38 F         144.2027  144.7897  164.3300 F       1  UNL1       -0.1659
     39 F         143.7359  142.6542  166.3847 F       1  UNL1       -0.1659
     40 C         137.5657  141.8055  162.9173 C.3     1  UNL1        0.1591
     41 C         137.7718  140.3689  162.5379 C.3     1  UNL1        0.1635
     42 O         137.0057  139.7788  161.3912 O.3     1  UNL1       -0.3799
     43 H         136.0614  139.7546  161.6115 H       1  UNL1        0.2105
@<TRIPOS>BOND
     1     1     2    2
     2     2    24    1
     3    24    25    1
     4    25    27    1
     5    27    28   ar
     6    28    29   ar
     7    29    40    1
     8    40    41    1
     9    41    42    1
    10    29    30   ar
    11    30    31   ar
    12    31    32   ar
    13    32    33   ar
    14    33    36    1
    15    36    37    1
    16    36    38    1
    17    36    39    1
    18    33    34   ar
    19    34    35   ar
    20     2     3   am
    21     3     5    1
    22     5     6    1
    23     6     7    1
    24     9     7    1
    25     9    10    1
    26    10    11    1
    27    11    12    1
    28    12    15    1
    29    15    16   ar
    30    16    17   ar
    31    17    18   ar
    32    18    19   ar
    33    19    20   ar
    34    19    21    1
    35    21    22    1
    36    22    23    1
    37    12    13    1
    38    13    14    1
    39     7     8    1
    40    35    27   ar
    41     8     5    1
    42    35    30   ar
    43    14     9    1
    44    20    15   ar
    45    23    18    1
    46    25    26    1
    47    42    43    1
    48     3     4    1
@<TRIPOS>MOLECULE
*****
 43 48 0 0 0
SMALL
GASTEIGER

@<TRIPOS>ATOM
      1 O         138.6354  140.4413  162.9589 O.2     1  UNL1       -0.2733
      2 C         139.0266  139.1374  162.3290 C.2     1  UNL1        0.2425
      3 N         139.4394  139.0947  160.8876 N.am    1  UNL1       -0.3018
      4 H         139.6961  138.2389  160.4742 H       1  UNL1        0.1495
      5 C         139.4610  140.3560  160.0761 C.3     1  UNL1        0.1035
      6 C         138.4280  141.1741  159.3595 C.3     1  UNL1        0.0933
      7 N         139.4917  142.1398  158.9284 N.3     1  UNL1       -0.2711
      8 C         140.5248  141.3218  159.6449 C.3     1  UNL1        0.0933
      9 C         139.5133  143.4012  158.1168 C.3     1  UNL1        0.0576
     10 C         138.8476  143.4400  156.7732 C.3     1  UNL1        0.0163
     11 C         138.8692  144.7013  155.9616 C.3     1  UNL1        0.0057
     12 C         139.5565  145.9238  156.4937 C.3     1  UNL1        0.0225
     13 C         140.2222  145.8849  157.8374 C.3     1  UNL1        0.0057
     14 C         140.2006  144.6236  158.6489 C.3     1  UNL1        0.0163
     15 C         139.5782  147.1851  155.6822 C.ar    1  UNL1       -0.0193
     16 C         140.3657  147.2430  154.4069 C.ar    1  UNL1       -0.0010
     17 C         140.3875  148.5043  153.5953 C.ar    1  UNL1        0.0399
     18 C         139.6217  149.7078  154.0591 C.ar    1  UNL1        0.1764
     19 C         138.8342  149.6500  155.3344 C.ar    1  UNL1        0.1761
     20 C         138.8124  148.3886  156.1460 C.ar    1  UNL1        0.0359
     21 O         138.1822  150.9855  155.5376 O.3     1  UNL1       -0.4346
     22 C         138.5669  151.8687  154.3878 C.3     1  UNL1        0.4294
     23 O         139.4565  151.0791  153.4740 O.3     1  UNL1       -0.4346
     24 C         139.0050  137.8761  163.1406 C.3     1  UNL1        0.1747
     25 N         140.2635  137.3793  163.7883 N.pl3   1  UNL1       -0.3093
     26 H         140.3865  136.4161  163.9506 H       1  UNL1        0.1487
     27 C         141.3345  138.3502  164.1888 C.ar    1  UNL1        0.1500
     28 N         142.6061  138.6187  163.4398 N.ar    1  UNL1       -0.1543
     29 N         143.3794  139.6574  164.1967 N.ar    1  UNL1       -0.2471
     30 C         142.5858  140.0309  165.4136 C.ar    1  UNL1        0.0807
     31 C         142.8507  141.0023  166.5254 C.ar    1  UNL1        0.0188
     32 C         141.8518  141.1657  167.6323 C.ar    1  UNL1        0.0054
     33 C         140.5880  140.3578  167.6275 C.ar    1  UNL1        0.0716
     34 C         140.3231  139.3864  166.5156 C.ar    1  UNL1        0.0082
     35 C         141.3220  139.2230  165.4087 C.ar    1  UNL1        0.0503
     36 C         139.5890  140.5213  168.7345 C.3     1  UNL1        0.4186
     37 F         138.5901  140.6848  169.8414 F       1  UNL1       -0.1659
     38 F         140.4883  141.5216  169.3983 F       1  UNL1       -0.1659
     39 F         138.6897  139.5210  168.0707 F       1  UNL1       -0.1659
     40 C         144.7123  140.2233  163.8055 C.3     1  UNL1        0.1591
     41 C         144.8925  140.8545  162.4567 C.3     1  UNL1        0.1635
     42 O         145.7222  142.0961  162.3144 O.3     1  UNL1       -0.3799
     43 H         145.2899  142.8290  162.7801 H       1  UNL1        0.2105
@<TRIPOS>BOND
     1     1     2    2
     2     2    24    1
     3    24    25    1
     4    25    27    1
     5    27    28   ar
     6    28    29   ar
     7    29    40    1
     8    40    41    1
     9    41    42    1
    10    29    30   ar
    11    30    31   ar
    12    31    32   ar
    13    32    33   ar
    14    33    36    1
    15    36    37    1
    16    36    38    1
    17    36    39    1
    18    33    34   ar
    19    34    35   ar
    20     2     3   am
    21     3     5    1
    22     5     6    1
    23     6     7    1
    24     9     7    1
    25     9    10    1
    26    10    11    1
    27    11    12    1
    28    12    15    1
    29    15    16   ar
    30    16    17   ar
    31    17    18   ar
    32    18    19   ar
    33    19    20   ar
    34    19    21    1
    35    21    22    1
    36    22    23    1
    37    12    13    1
    38    13    14    1
    39     7     8    1
    40    35    27   ar
    41     8     5    1
    42    35    30   ar
    43    14     9    1
    44    20    15   ar
    45    23    18    1
    46    25    26    1
    47    42    43    1
    48     3     4    1
@<TRIPOS>MOLECULE
*****
 43 48 0 0 0
SMALL
GASTEIGER

@<TRIPOS>ATOM
      1 O         142.7357  141.6899  163.1739 O.2     1  UNL1       -0.2733
      2 C         141.6845  142.7369  162.9536 C.2     1  UNL1        0.2425
      3 N         140.7921  142.6624  161.7503 N.am    1  UNL1       -0.3018
      4 H         140.1021  143.3496  161.6058 H       1  UNL1        0.1495
      5 C         140.9509  141.5407  160.7672 C.3     1  UNL1        0.1035
      6 C         140.7616  140.0535  160.8151 C.3     1  UNL1        0.0933
      7 N         141.1757  139.9544  159.3768 N.3     1  UNL1       -0.2711
      8 C         141.3650  141.4416  159.3288 C.3     1  UNL1        0.0933
      9 C         141.3345  138.8326  158.3936 C.3     1  UNL1        0.0576
     10 C         142.6572  138.1390  158.2545 C.3     1  UNL1        0.0163
     11 C         142.8161  137.0173  157.2713 C.3     1  UNL1        0.0057
     12 C         141.6523  136.5892  156.4274 C.3     1  UNL1        0.0225
     13 C         140.3295  137.2829  156.5667 C.3     1  UNL1        0.0057
     14 C         140.1707  138.4045  157.5497 C.3     1  UNL1        0.0163
     15 C         141.8110  135.4675  155.4443 C.ar    1  UNL1       -0.0193
     16 C         141.0977  135.5194  154.1257 C.ar    1  UNL1       -0.0010
     17 C         141.2564  134.3977  153.1425 C.ar    1  UNL1        0.0399
     18 C         142.1283  133.2242  153.4778 C.ar    1  UNL1        0.1764
     19 C         142.8416  133.1723  154.7964 C.ar    1  UNL1        0.1761
     20 C         142.6829  134.2940  155.7796 C.ar    1  UNL1        0.0359
     21 O         143.6279  131.8960  154.8481 O.3     1  UNL1       -0.4346
     22 C         143.4006  131.1591  153.5615 C.3     1  UNL1        0.4294
     23 O         142.4738  131.9799  152.7146 O.3     1  UNL1       -0.4346
     24 C         141.5256  143.8587  163.9367 C.3     1  UNL1        0.1747
     25 N         140.3302  143.8989  164.8420 N.pl3   1  UNL1       -0.3093
     26 H         139.6709  144.6248  164.7549 H       1  UNL1        0.1487
     27 C         140.1393  142.8330  165.8801 C.ar    1  UNL1        0.1500
     28 N         140.4086  142.9744  167.3489 N.ar    1  UNL1       -0.1543
     29 N         140.0814  141.6674  168.0080 N.ar    1  UNL1       -0.2471
     30 C         139.6098  140.7182  166.9466 C.ar    1  UNL1        0.0807
     31 C         139.1524  139.2910  167.0078 C.ar    1  UNL1        0.0188
     32 C         138.7308  138.5841  165.7538 C.ar    1  UNL1        0.0054
     33 C         138.7666  139.3046  164.4386 C.ar    1  UNL1        0.0716
     34 C         139.2240  140.7318  164.3774 C.ar    1  UNL1        0.0082
     35 C         139.6456  141.4386  165.6314 C.ar    1  UNL1        0.0503
     36 C         138.3450  138.5977  163.1845 C.3     1  UNL1        0.4186
     37 F         137.9234  137.8908  161.9305 F       1  UNL1       -0.1659
     38 F         137.6138  139.8284  162.7365 F       1  UNL1       -0.1659
     39 F         139.0762  137.3670  163.6325 F       1  UNL1       -0.1659
     40 C         140.2041  141.3630  169.4717 C.3     1  UNL1        0.1591
     41 C         140.2244  142.4813  170.4713 C.3     1  UNL1        0.1635
     42 O         140.4734  142.1871  171.9209 O.3     1  UNL1       -0.3799
     43 H         139.7369  141.6653  172.2761 H       1  UNL1        0.2105
@<TRIPOS>BOND
     1     1     2    2
     2     2    24    1
     3    24    25    1
     4    25    27    1
     5    27    28   ar
     6    28    29   ar
     7    29    40    1
     8    40    41    1
     9    41    42    1
    10    29    30   ar
    11    30    31   ar
    12    31    32   ar
    13    32    33   ar
    14    33    36    1
    15    36    37    1
    16    36    38    1
    17    36    39    1
    18    33    34   ar
    19    34    35   ar
    20     2     3   am
    21     3     5    1
    22     5     6    1
    23     6     7    1
    24     9     7    1
    25     9    10    1
    26    10    11    1
    27    11    12    1
    28    12    15    1
    29    15    16   ar
    30    16    17   ar
    31    17    18   ar
    32    18    19   ar
    33    19    20   ar
    34    19    21    1
    35    21    22    1
    36    22    23    1
    37    12    13    1
    38    13    14    1
    39     7     8    1
    40    35    27   ar
    41     8     5    1
    42    35    30   ar
    43    14     9    1
    44    20    15   ar
    45    23    18    1
    46    25    26    1
    47    42    43    1
    48     3     4    1
@<TRIPOS>MOLECULE
*****
 43 48 0 0 0
SMALL
GASTEIGER

@<TRIPOS>ATOM
      1 O         140.9410  137.6109  161.5654 O.2     1  UNL1       -0.2733
      2 C         139.7166  138.4769  161.5363 C.2     1  UNL1        0.2425
      3 N         139.6791  139.6936  160.6599 N.am    1  UNL1       -0.3018
      4 H         138.8755  140.2620  160.6408 H       1  UNL1        0.1495
      5 C         140.8661  140.0442  159.8124 C.3     1  UNL1        0.1035
      6 C         142.3538  139.9546  159.9816 C.3     1  UNL1        0.0933
      7 N         142.5447  140.5401  158.6139 N.3     1  UNL1       -0.2711
      8 C         141.0570  140.6298  158.4446 C.3     1  UNL1        0.0933
      9 C         143.7317  140.8907  157.7664 C.3     1  UNL1        0.0576
     10 C         144.1021  140.0244  156.5992 C.3     1  UNL1        0.0163
     11 C         145.2891  140.3750  155.7518 C.3     1  UNL1        0.0057
     12 C         146.1056  141.5920  156.0715 C.3     1  UNL1        0.0225
     13 C         145.7352  142.4583  157.2387 C.3     1  UNL1        0.0057
     14 C         144.5483  142.1077  158.0861 C.3     1  UNL1        0.0163
     15 C         147.2926  141.9427  155.2242 C.ar    1  UNL1       -0.0193
     16 C         147.0918  142.5159  153.8526 C.ar    1  UNL1       -0.0010
     17 C         148.2788  142.8667  153.0051 C.ar    1  UNL1        0.0399
     18 C         149.6664  142.6442  153.5292 C.ar    1  UNL1        0.1764
     19 C         149.8673  142.0709  154.9007 C.ar    1  UNL1        0.1761
     20 C         148.6803  141.7202  155.7482 C.ar    1  UNL1        0.0359
     21 O         151.3430  141.9642  155.1470 O.3     1  UNL1       -0.4346
     22 C         152.0543  142.4715  153.9277 C.3     1  UNL1        0.4294
     23 O         151.0182  142.8918  152.9278 O.3     1  UNL1       -0.4346
     24 C         138.5296  138.1263  162.3838 C.3     1  UNL1        0.1747
     25 N         138.5481  138.4136  163.8560 N.pl3   1  UNL1       -0.3093
     26 H         138.4657  137.6758  164.5026 H       1  UNL1        0.1487
     27 C         138.6919  139.8250  164.3430 C.ar    1  UNL1        0.1500
     28 N         138.0125  141.0308  163.7646 N.ar    1  UNL1       -0.1543
     29 N         138.4411  142.2294  164.5580 N.ar    1  UNL1       -0.2471
     30 C         139.3853  141.7645  165.6268 C.ar    1  UNL1        0.0807
     31 C         140.1240  142.5023  166.7038 C.ar    1  UNL1        0.0188
     32 C         141.0178  141.7540  167.6478 C.ar    1  UNL1        0.0054
     33 C         141.1728  140.2680  167.5149 C.ar    1  UNL1        0.0716
     34 C         140.4341  139.5302  166.4379 C.ar    1  UNL1        0.0082
     35 C         139.5404  140.2785  165.4939 C.ar    1  UNL1        0.0503
     36 C         142.0665  139.5197  168.4591 C.3     1  UNL1        0.4186
     37 F         142.9603  138.7715  169.4031 F       1  UNL1       -0.1659
     38 F         140.9760  139.5165  169.4890 F       1  UNL1       -0.1659
     39 F         143.1571  139.5229  167.4292 F       1  UNL1       -0.1659
     40 C         138.0024  143.6446  164.3239 C.3     1  UNL1        0.1591
     41 C         137.8632  144.1648  162.9238 C.3     1  UNL1        0.1635
     42 O         137.5177  143.2262  161.8059 O.3     1  UNL1       -0.3799
     43 H         138.2453  142.5984  161.6742 H       1  UNL1        0.2105
@<TRIPOS>BOND
     1     1     2    2
     2     2    24    1
     3    24    25    1
     4    25    27    1
     5    27    28   ar
     6    28    29   ar
     7    29    40    1
     8    40    41    1
     9    41    42    1
    10    29    30   ar
    11    30    31   ar
    12    31    32   ar
    13    32    33   ar
    14    33    36    1
    15    36    37    1
    16    36    38    1
    17    36    39    1
    18    33    34   ar
    19    34    35   ar
    20     2     3   am
    21     3     5    1
    22     5     6    1
    23     6     7    1
    24     9     7    1
    25     9    10    1
    26    10    11    1
    27    11    12    1
    28    12    15    1
    29    15    16   ar
    30    16    17   ar
    31    17    18   ar
    32    18    19   ar
    33    19    20   ar
    34    19    21    1
    35    21    22    1
    36    22    23    1
    37    12    13    1
    38    13    14    1
    39     7     8    1
    40    35    27   ar
    41     8     5    1
    42    35    30   ar
    43    14     9    1
    44    20    15   ar
    45    23    18    1
    46    25    26    1
    47    42    43    1
    48     3     4    1
@<TRIPOS>MOLECULE
*****
 43 48 0 0 0
SMALL
GASTEIGER

@<TRIPOS>ATOM
      1 O         144.4717  138.8686  162.7635 O.2     1  UNL1       -0.2733
      2 C         144.4603  140.3152  162.3671 C.2     1  UNL1        0.2425
      3 N         144.0267  140.7113  160.9869 N.am    1  UNL1       -0.3018
      4 H         144.0192  141.6608  160.7268 H       1  UNL1        0.1495
      5 C         143.6046  139.6607  160.0030 C.3     1  UNL1        0.1035
      6 C         143.6842  139.5098  158.5128 C.3     1  UNL1        0.0933
      7 N         143.0075  138.1748  158.6116 N.3     1  UNL1       -0.2711
      8 C         142.9278  138.3256  160.1019 C.3     1  UNL1        0.0933
      9 C         142.5854  137.1242  157.6278 C.3     1  UNL1        0.0576
     10 C         143.3106  135.8123  157.5740 C.3     1  UNL1        0.0163
     11 C         142.8885  134.7617  156.5901 C.3     1  UNL1        0.0057
     12 C         141.7411  135.0230  155.6600 C.3     1  UNL1        0.0225
     13 C         141.0158  136.3350  155.7138 C.3     1  UNL1        0.0057
     14 C         141.4380  137.3855  156.6976 C.3     1  UNL1        0.0163
     15 C         141.3189  133.9725  154.6761 C.ar    1  UNL1       -0.0193
     16 C         141.0812  134.3408  153.2415 C.ar    1  UNL1       -0.0010
     17 C         140.6589  133.2904  152.2575 C.ar    1  UNL1        0.0399
     18 C         140.4744  131.8716  152.7080 C.ar    1  UNL1        0.1764
     19 C         140.7121  131.5033  154.1425 C.ar    1  UNL1        0.1761
     20 C         141.1343  132.5537  155.1266 C.ar    1  UNL1        0.0359
     21 O         140.4523  130.0336  154.2929 O.3     1  UNL1       -0.4346
     22 C         140.0541  129.4937  152.9513 C.3     1  UNL1        0.4294
     23 O         140.0677  130.6296  151.9718 O.3     1  UNL1       -0.4346
     24 C         144.8824  141.3658  163.3510 C.3     1  UNL1        0.1747
     25 N         144.3537  142.7642  163.2281 N.pl3   1  UNL1       -0.3093
     26 H         144.9126  143.4683  162.8266 H       1  UNL1        0.1487
     27 C         142.9735  143.0899  163.7169 C.ar    1  UNL1        0.1500
     28 N         141.8857  143.7424  162.9163 N.ar    1  UNL1       -0.1543
     29 N         140.6787  143.8759  163.7968 N.ar    1  UNL1       -0.2471
     30 C         141.0205  143.3060  165.1416 C.ar    1  UNL1        0.0807
     31 C         140.2235  143.1666  166.4046 C.ar    1  UNL1        0.0188
     32 C         140.8449  142.5414  167.6183 C.ar    1  UNL1        0.0054
     33 C         142.2631  142.0556  167.5689 C.ar    1  UNL1        0.0716
     34 C         143.0601  142.1950  166.3059 C.ar    1  UNL1        0.0082
     35 C         142.4388  142.8202  165.0922 C.ar    1  UNL1        0.0503
     36 C         142.8845  141.4304  168.7827 C.3     1  UNL1        0.4186
     37 F         143.5057  140.8052  169.9964 F       1  UNL1       -0.1659
     38 F         142.7145  140.0719  168.1700 F       1  UNL1       -0.1659
     39 F         143.0544  142.7889  169.3954 F       1  UNL1       -0.1659
     40 C         139.3612  144.4744  163.4019 C.3     1  UNL1        0.1591
     41 C         139.2968  145.4783  162.2892 C.3     1  UNL1        0.1635
     42 O         140.2896  146.6014  162.2339 O.3     1  UNL1       -0.3799
     43 H         140.1537  147.1907  162.9923 H       1  UNL1        0.2105
@<TRIPOS>BOND
     1     1     2    2
     2     2    24    1
     3    24    25    1
     4    25    27    1
     5    27    28   ar
     6    28    29   ar
     7    29    40    1
     8    40    41    1
     9    41    42    1
    10    29    30   ar
    11    30    31   ar
    12    31    32   ar
    13    32    33   ar
    14    33    36    1
    15    36    37    1
    16    36    38    1
    17    36    39    1
    18    33    34   ar
    19    34    35   ar
    20     2     3   am
    21     3     5    1
    22     5     6    1
    23     6     7    1
    24     9     7    1
    25     9    10    1
    26    10    11    1
    27    11    12    1
    28    12    15    1
    29    15    16   ar
    30    16    17   ar
    31    17    18   ar
    32    18    19   ar
    33    19    20   ar
    34    19    21    1
    35    21    22    1
    36    22    23    1
    37    12    13    1
    38    13    14    1
    39     7     8    1
    40    35    27   ar
    41     8     5    1
    42    35    30   ar
    43    14     9    1
    44    20    15   ar
    45    23    18    1
    46    25    26    1
    47    42    43    1
    48     3     4    1
@<TRIPOS>MOLECULE
*****
 43 48 0 0 0
SMALL
GASTEIGER

@<TRIPOS>ATOM
      1 O         143.1707  143.1632  158.4317 O.2     1  UNL1       -0.2733
      2 C         141.8123  143.7380  158.1588 C.2     1  UNL1        0.2425
      3 N         140.7267  142.8656  157.6019 N.am    1  UNL1       -0.3018
      4 H         139.8352  143.2429  157.4228 H       1  UNL1        0.1495
      5 C         140.9995  141.4182  157.3178 C.3     1  UNL1        0.1035
      6 C         141.8108  140.6715  156.3009 C.3     1  UNL1        0.0933
      7 N         141.3852  139.3713  156.9161 N.3     1  UNL1       -0.2711
      8 C         140.5738  140.1180  157.9330 C.3     1  UNL1        0.0933
      9 C         141.6579  137.9239  156.6319 C.3     1  UNL1        0.0576
     10 C         142.7770  137.2187  157.3393 C.3     1  UNL1        0.0163
     11 C         143.0498  135.7713  157.0552 C.3     1  UNL1        0.0057
     12 C         142.2034  135.0291  156.0637 C.3     1  UNL1        0.0225
     13 C         141.0843  135.7345  155.3564 C.3     1  UNL1        0.0057
     14 C         140.8116  137.1818  155.6405 C.3     1  UNL1        0.0163
     15 C         142.4761  133.5818  155.7796 C.ar    1  UNL1       -0.0193
     16 C         143.8809  133.0586  155.8335 C.ar    1  UNL1       -0.0010
     17 C         144.1537  131.6113  155.5494 C.ar    1  UNL1        0.0399
     18 C         143.0217  130.6871  155.2112 C.ar    1  UNL1        0.1764
     19 C         141.6169  131.2102  155.1573 C.ar    1  UNL1        0.1761
     20 C         141.3441  132.6576  155.4414 C.ar    1  UNL1        0.0359
     21 O         140.7110  130.0697  154.7989 O.3     1  UNL1       -0.4346
     22 C         141.5559  128.8416  154.6314 C.3     1  UNL1        0.4294
     23 O         142.9840  129.2232  154.8862 O.3     1  UNL1       -0.4346
     24 C         141.5396  145.1854  158.4429 C.3     1  UNL1        0.1747
     25 N         141.5545  145.6881  159.8562 N.pl3   1  UNL1       -0.3093
     26 H         141.9842  146.5481  160.0683 H       1  UNL1        0.1487
     27 C         140.9146  144.8805  160.9463 C.ar    1  UNL1        0.1500
     28 N         139.4546  144.8635  161.2899 N.ar    1  UNL1       -0.1543
     29 N         139.2600  143.9205  162.4401 N.ar    1  UNL1       -0.2471
     30 C         140.5998  143.3547  162.8073 C.ar    1  UNL1        0.0807
     31 C         141.0208  142.3760  163.8632 C.ar    1  UNL1        0.0188
     32 C         142.4643  141.9905  163.9957 C.ar    1  UNL1        0.0054
     33 C         143.4868  142.5838  163.0725 C.ar    1  UNL1        0.0716
     34 C         143.0659  143.5625  162.0167 C.ar    1  UNL1        0.0082
     35 C         141.6224  143.9480  161.8841 C.ar    1  UNL1        0.0503
     36 C         144.9304  142.1982  163.2051 C.3     1  UNL1        0.4186
     37 F         146.3739  141.8127  163.3377 F       1  UNL1       -0.1659
     38 F         145.1101  142.3615  161.7249 F       1  UNL1       -0.1659
     39 F         144.7508  142.0349  164.6853 F       1  UNL1       -0.1659
     40 C         137.9549  143.5997  163.1061 C.3     1  UNL1        0.1591
     41 C         137.6999  142.2172  163.6296 C.3     1  UNL1        0.1635
     42 O         136.6121  141.3767  163.0292 O.3     1  UNL1       -0.3799
     43 H         135.7506  141.7821  163.2148 H       1  UNL1        0.2105
@<TRIPOS>BOND
     1     1     2    2
     2     2    24    1
     3    24    25    1
     4    25    27    1
     5    27    28   ar
     6    28    29   ar
     7    29    40    1
     8    40    41    1
     9    41    42    1
    10    29    30   ar
    11    30    31   ar
    12    31    32   ar
    13    32    33   ar
    14    33    36    1
    15    36    37    1
    16    36    38    1
    17    36    39    1
    18    33    34   ar
    19    34    35   ar
    20     2     3   am
    21     3     5    1
    22     5     6    1
    23     6     7    1
    24     9     7    1
    25     9    10    1
    26    10    11    1
    27    11    12    1
    28    12    15    1
    29    15    16   ar
    30    16    17   ar
    31    17    18   ar
    32    18    19   ar
    33    19    20   ar
    34    19    21    1
    35    21    22    1
    36    22    23    1
    37    12    13    1
    38    13    14    1
    39     7     8    1
    40    35    27   ar
    41     8     5    1
    42    35    30   ar
    43    14     9    1
    44    20    15   ar
    45    23    18    1
    46    25    26    1
    47    42    43    1
    48     3     4    1
@<TRIPOS>MOLECULE
*****
 43 48 0 0 0
SMALL
GASTEIGER

@<TRIPOS>ATOM
      1 O         140.8361  137.7583  165.0351 O.2     1  UNL1       -0.2733
      2 C         139.3589  137.6576  164.7951 C.2     1  UNL1        0.2425
      3 N         138.7996  137.9380  163.4318 N.am    1  UNL1       -0.3018
      4 H         137.8300  137.8718  163.2743 H       1  UNL1        0.1495
      5 C         139.7177  138.3192  162.3085 C.3     1  UNL1        0.1035
      6 C         139.6905  139.3509  161.2200 C.3     1  UNL1        0.0933
      7 N         141.0161  138.8583  160.7199 N.3     1  UNL1       -0.2711
      8 C         141.0433  137.8265  161.8083 C.3     1  UNL1        0.0933
      9 C         141.9341  139.2395  159.5966 C.3     1  UNL1        0.0576
     10 C         141.8298  138.5416  158.2729 C.3     1  UNL1        0.0163
     11 C         142.7479  138.9228  157.1496 C.3     1  UNL1        0.0057
     12 C         143.7702  140.0020  157.3499 C.3     1  UNL1        0.0225
     13 C         143.8745  140.6999  158.6736 C.3     1  UNL1        0.0057
     14 C         142.9565  140.3187  159.7968 C.3     1  UNL1        0.0163
     15 C         144.6883  140.3833  156.2267 C.ar    1  UNL1       -0.0193
     16 C         144.5006  139.7790  154.8666 C.ar    1  UNL1       -0.0010
     17 C         145.4186  140.1603  153.7433 C.ar    1  UNL1        0.0399
     18 C         146.5244  141.1458  153.9800 C.ar    1  UNL1        0.1764
     19 C         146.7121  141.7500  155.3400 C.ar    1  UNL1        0.1761
     20 C         145.7941  141.3688  156.4634 C.ar    1  UNL1        0.0359
     21 O         147.8814  142.6872  155.2735 O.3     1  UNL1       -0.4346
     22 C         148.4163  142.6622  153.8723 C.3     1  UNL1        0.4294
     23 O         147.5777  141.7095  153.0729 O.3     1  UNL1       -0.4346
     24 C         138.4408  137.2763  165.9184 C.3     1  UNL1        0.1747
     25 N         137.9501  138.3232  166.8742 N.pl3   1  UNL1       -0.3093
     26 H         137.0475  138.2524  167.2608 H       1  UNL1        0.1487
     27 C         138.8347  139.4778  167.2408 C.ar    1  UNL1        0.1500
     28 N         139.6572  139.5966  168.4895 N.ar    1  UNL1       -0.1543
     29 N         140.3829  140.9086  168.4434 N.ar    1  UNL1       -0.2471
     30 C         140.0088  141.6007  167.1663 C.ar    1  UNL1        0.0807
     31 C         140.4158  142.9218  166.5841 C.ar    1  UNL1        0.0188
     32 C         139.8660  143.3586  165.2587 C.ar    1  UNL1        0.0054
     33 C         138.9091  142.4744  164.5154 C.ar    1  UNL1        0.0716
     34 C         138.5021  141.1533  165.0976 C.ar    1  UNL1        0.0082
     35 C         139.0519  140.7164  166.4230 C.ar    1  UNL1        0.0503
     36 C         138.3592  142.9113  163.1900 C.3     1  UNL1        0.4186
     37 F         137.8095  143.3482  161.8645 F       1  UNL1       -0.1659
     38 F         137.0732  142.1995  163.4888 F       1  UNL1       -0.1659
     39 F         139.6453  143.6231  162.8911 F       1  UNL1       -0.1659
     40 C         141.3184  141.4359  169.4906 C.3     1  UNL1        0.1591
     41 C         140.8049  141.7530  170.8640 C.3     1  UNL1        0.1635
     42 O         140.6870  140.6654  171.8902 O.3     1  UNL1       -0.3799
     43 H         140.0135  140.0267  171.6085 H       1  UNL1        0.2105
@<TRIPOS>BOND
     1     1     2    2
     2     2    24    1
     3    24    25    1
     4    25    27    1
     5    27    28   ar
     6    28    29   ar
     7    29    40    1
     8    40    41    1
     9    41    42    1
    10    29    30   ar
    11    30    31   ar
    12    31    32   ar
    13    32    33   ar
    14    33    36    1
    15    36    37    1
    16    36    38    1
    17    36    39    1
    18    33    34   ar
    19    34    35   ar
    20     2     3   am
    21     3     5    1
    22     5     6    1
    23     6     7    1
    24     9     7    1
    25     9    10    1
    26    10    11    1
    27    11    12    1
    28    12    15    1
    29    15    16   ar
    30    16    17   ar
    31    17    18   ar
    32    18    19   ar
    33    19    20   ar
    34    19    21    1
    35    21    22    1
    36    22    23    1
    37    12    13    1
    38    13    14    1
    39     7     8    1
    40    35    27   ar
    41     8     5    1
    42    35    30   ar
    43    14     9    1
    44    20    15   ar
    45    23    18    1
    46    25    26    1
    47    42    43    1
    48     3     4    1
