@<TRIPOS>MOLECULE
*****
 24 26 0 0 0
SMALL
GASTEIGER

@<TRIPOS>ATOM
      1 C         137.6420  140.2452  162.3614 C.3     1  UNL1        0.1111
      2 C         137.4826  139.6854  160.9790 C.3     1  UNL1        0.1598
      3 O         138.4078  138.5124  160.8443 O.3     1  UNL1       -0.3519
      4 C         139.1390  138.3473  162.1436 C.3     1  UNL1        0.1480
      5 C         138.6657  139.4183  163.0812 C.3     1  UNL1        0.0704
      6 C         139.1339  139.6258  164.4911 C.ar    1  UNL1       -0.0186
      7 C         138.2992  139.1383  165.6380 C.ar    1  UNL1       -0.0042
      8 C         138.7675  139.3459  167.0478 C.ar    1  UNL1       -0.0003
      9 C         140.0705  140.0409  167.3107 C.ar    1  UNL1        0.0005
     10 C         140.9052  140.5284  166.1638 C.ar    1  UNL1       -0.0003
     11 C         140.4370  140.3208  164.7540 C.ar    1  UNL1       -0.0042
     12 C         140.5387  140.2484  168.7206 C.ar    1  UNL1        0.0070
     13 C         139.6610  140.4268  169.9239 C.ar    1  UNL1        0.0075
     14 C         140.5466  140.6026  171.1217 C.ar    1  UNL1        0.0355
     15 S         141.9717  140.5329  170.6587 S.2     1  UNL1       -0.0859
     16 C         141.9668  140.3140  169.1748 C.ar    1  UNL1        0.0354
     17 N         136.9067  141.4249  162.9251 N.3     1  UNL1       -0.1819
     18 H         136.1535  141.6417  162.2723 H       1  UNL1        0.1485
     19 S         137.6366  142.7091  163.1857 S.O2    1  UNL1        0.0391
     20 O         137.6839  142.9815  161.7114 O.2     1  UNL1       -0.1576
     21 O         137.5894  142.4367  164.6600 O.2     1  UNL1       -0.1576
     22 C         139.0706  144.6969  162.3241 C.3     1  UNL1        0.0270
     23 C         138.3666  143.9933  163.4463 C.3     1  UNL1        0.1457
     24 C         138.3926  144.5740  164.8291 C.3     1  UNL1        0.0270
@<TRIPOS>BOND
     1    22    23    1
     2    23    24    1
     3    23    19    1
     4    19    20    2
     5    19    21    2
     6    19    17    1
     7     1    17    1
     8     1     2    1
     9     2     3    1
    10     3     4    1
    11     4     5    1
    12     5     6    1
    13     6     7   ar
    14     7     8   ar
    15     8     9   ar
    16     9    12    1
    17    12    13   ar
    18    13    14   ar
    19    14    15   ar
    20    15    16   ar
    21     9    10   ar
    22    10    11   ar
    23     5     1    1
    24    11     6   ar
    25    16    12   ar
    26    17    18    1
@<TRIPOS>MOLECULE
*****
 24 26 0 0 0
SMALL
GASTEIGER

@<TRIPOS>ATOM
      1 C         139.4335  138.2336  162.3252 C.3     1  UNL1        0.1111
      2 C         138.7794  138.1790  160.9765 C.3     1  UNL1        0.1598
      3 O         137.7267  139.2466  160.9283 O.3     1  UNL1       -0.3519
      4 C         137.7304  139.9610  162.2473 C.3     1  UNL1        0.1480
      5 C         138.7852  139.3349  163.1106 C.3     1  UNL1        0.0704
      6 C         139.1311  139.7392  164.5131 C.ar    1  UNL1       -0.0186
      7 C         140.0268  140.9179  164.7546 C.ar    1  UNL1       -0.0042
      8 C         140.3725  141.3222  166.1571 C.ar    1  UNL1       -0.0003
      9 C         139.8226  140.5478  167.3181 C.ar    1  UNL1        0.0005
     10 C         138.9270  139.3691  167.0766 C.ar    1  UNL1       -0.0003
     11 C         138.5812  138.9648  165.6741 C.ar    1  UNL1       -0.0042
     12 C         140.1685  140.9521  168.7206 C.ar    1  UNL1        0.0070
     13 C         140.2592  142.3579  169.2359 C.ar    1  UNL1        0.0075
     14 C         140.6311  142.2963  170.6878 C.ar    1  UNL1        0.0355
     15 S         140.7702  140.8524  171.0697 S.2     1  UNL1       -0.0859
     16 C         140.4843  140.0217  169.8539 C.ar    1  UNL1        0.0354
     17 N         140.5415  137.3432  162.8044 N.3     1  UNL1       -0.1819
     18 H         140.1238  136.6775  163.4546 H       1  UNL1        0.1485
     19 S         141.7332  137.9351  163.4967 S.O2    1  UNL1        0.0391
     20 O         142.0446  138.7418  162.2710 O.2     1  UNL1       -0.1576
     21 O         141.4219  137.1285  164.7224 O.2     1  UNL1       -0.1576
     22 C         142.9870  138.5505  165.6874 C.3     1  UNL1        0.0270
     23 C         142.9250  138.5270  164.1889 C.3     1  UNL1        0.1457
     24 C         144.0549  139.0955  163.3826 C.3     1  UNL1        0.0270
@<TRIPOS>BOND
     1    22    23    1
     2    23    24    1
     3    23    19    1
     4    19    20    2
     5    19    21    2
     6    19    17    1
     7     1    17    1
     8     1     2    1
     9     2     3    1
    10     3     4    1
    11     4     5    1
    12     5     6    1
    13     6     7   ar
    14     7     8   ar
    15     8     9   ar
    16     9    12    1
    17    12    13   ar
    18    13    14   ar
    19    14    15   ar
    20    15    16   ar
    21     9    10   ar
    22    10    11   ar
    23     5     1    1
    24    11     6   ar
    25    16    12   ar
    26    17    18    1
@<TRIPOS>MOLECULE
*****
 24 26 0 0 0
SMALL
GASTEIGER

@<TRIPOS>ATOM
      1 C         142.5805  137.8487  162.1090 C.3     1  UNL1        0.1111
      2 C         143.1436  137.7243  160.7243 C.3     1  UNL1        0.1598
      3 O         144.2309  138.7465  160.5725 O.3     1  UNL1       -0.3519
      4 C         144.3398  139.5026  161.8634 C.3     1  UNL1        0.1480
      5 C         143.3198  138.9477  162.8130 C.3     1  UNL1        0.0704
      6 C         143.0810  139.4106  164.2197 C.ar    1  UNL1       -0.0186
      7 C         143.4752  138.5373  165.3738 C.ar    1  UNL1       -0.0042
      8 C         143.2364  139.0002  166.7804 C.ar    1  UNL1       -0.0003
      9 C         142.6034  140.3365  167.0330 C.ar    1  UNL1        0.0005
     10 C         142.2092  141.2098  165.8789 C.ar    1  UNL1       -0.0003
     11 C         142.4480  140.7469  164.4723 C.ar    1  UNL1       -0.0042
     12 C         142.3646  140.7994  168.4397 C.ar    1  UNL1        0.0070
     13 C         142.6698  142.1640  168.9826 C.ar    1  UNL1        0.0075
     14 C         142.2725  142.1870  170.4288 C.ar    1  UNL1        0.0355
     15 S         141.7218  140.8365  170.7798 S.2     1  UNL1       -0.0859
     16 C         141.7787  139.9790  169.5504 C.ar    1  UNL1        0.0354
     17 N         141.4727  137.0196  162.6880 N.3     1  UNL1       -0.1819
     18 H         141.1507  136.3987  161.9456 H       1  UNL1        0.1485
     19 S         140.2540  137.6862  163.2539 S.O2    1  UNL1        0.0391
     20 O         139.9298  138.2433  161.8994 O.2     1  UNL1       -0.1576
     21 O         140.5780  137.1291  164.6083 O.2     1  UNL1       -0.1576
     22 C         138.1946  139.2409  162.9509 C.3     1  UNL1        0.0270
     23 C         139.0352  138.3528  163.8196 C.3     1  UNL1        0.1457
     24 C         138.6570  138.1314  165.2542 C.3     1  UNL1        0.0270
@<TRIPOS>BOND
     1    22    23    1
     2    23    24    1
     3    23    19    1
     4    19    20    2
     5    19    21    2
     6    19    17    1
     7     1    17    1
     8     1     2    1
     9     2     3    1
    10     3     4    1
    11     4     5    1
    12     5     6    1
    13     6     7   ar
    14     7     8   ar
    15     8     9   ar
    16     9    12    1
    17    12    13   ar
    18    13    14   ar
    19    14    15   ar
    20    15    16   ar
    21     9    10   ar
    22    10    11   ar
    23     5     1    1
    24    11     6   ar
    25    16    12   ar
    26    17    18    1
@<TRIPOS>MOLECULE
*****
 24 26 0 0 0
SMALL
GASTEIGER

@<TRIPOS>ATOM
      1 C         144.0617  139.3391  162.0729 C.3     1  UNL1        0.1111
      2 C         143.9203  138.6859  160.7301 C.3     1  UNL1        0.1598
      3 O         142.6998  137.8144  160.7647 O.3     1  UNL1       -0.3519
      4 C         142.0870  137.9291  162.1290 C.3     1  UNL1        0.1480
      5 C         142.9287  138.8714  162.9375 C.3     1  UNL1        0.0704
      6 C         142.6808  139.2751  164.3608 C.ar    1  UNL1       -0.0186
      7 C         141.7850  140.4391  164.6651 C.ar    1  UNL1       -0.0042
      8 C         141.5372  140.8427  166.0883 C.ar    1  UNL1       -0.0003
      9 C         142.1851  140.0823  167.2073 C.ar    1  UNL1        0.0005
     10 C         143.0809  138.9183  166.9030 C.ar    1  UNL1       -0.0003
     11 C         143.3287  138.5147  165.4797 C.ar    1  UNL1       -0.0042
     12 C         141.9372  140.4860  168.6305 C.ar    1  UNL1        0.0070
     13 C         142.7880  141.4157  169.4442 C.ar    1  UNL1        0.0075
     14 C         142.1717  141.5352  170.8066 C.ar    1  UNL1        0.0355
     15 S         140.9401  140.6793  170.8348 S.2     1  UNL1       -0.0859
     16 C         140.7952  140.0310  169.4900 C.ar    1  UNL1        0.0354
     17 N         145.1458  140.2926  162.4798 N.3     1  UNL1       -0.1819
     18 H         145.7089  139.8152  163.1836 H       1  UNL1        0.1485
     19 S         144.7902  141.6348  163.0471 S.O2    1  UNL1        0.0391
     20 O         144.0450  141.9692  161.7890 O.2     1  UNL1       -0.1576
     21 O         145.5354  141.3005  164.3052 O.2     1  UNL1       -0.1576
     22 C         144.1576  144.1301  162.6958 C.3     1  UNL1        0.0270
     23 C         144.4346  142.9771  163.6144 C.3     1  UNL1        0.1457
     24 C         144.3558  143.1664  165.1003 C.3     1  UNL1        0.0270
@<TRIPOS>BOND
     1    22    23    1
     2    23    24    1
     3    23    19    1
     4    19    20    2
     5    19    21    2
     6    19    17    1
     7     1    17    1
     8     1     2    1
     9     2     3    1
    10     3     4    1
    11     4     5    1
    12     5     6    1
    13     6     7   ar
    14     7     8   ar
    15     8     9   ar
    16     9    12    1
    17    12    13   ar
    18    13    14   ar
    19    14    15   ar
    20    15    16   ar
    21     9    10   ar
    22    10    11   ar
    23     5     1    1
    24    11     6   ar
    25    16    12   ar
    26    17    18    1
@<TRIPOS>MOLECULE
*****
 24 26 0 0 0
SMALL
GASTEIGER

@<TRIPOS>ATOM
      1 C         140.5713  141.2154  169.1650 C.3     1  UNL1        0.1111
      2 C         140.4277  141.3810  170.6489 C.3     1  UNL1        0.1598
      3 O         140.4145  142.8500  170.9523 O.3     1  UNL1       -0.3519
      4 C         140.5499  143.5922  169.6559 C.3     1  UNL1        0.1480
      5 C         140.6468  142.5820  168.5513 C.3     1  UNL1        0.0704
      6 C         140.7936  142.8852  167.0895 C.ar    1  UNL1       -0.0186
      7 C         139.6705  143.5424  166.3435 C.ar    1  UNL1       -0.0042
      8 C         139.8172  143.8455  164.8818 C.ar    1  UNL1       -0.0003
      9 C         141.0871  143.4915  164.1662 C.ar    1  UNL1        0.0005
     10 C         142.2102  142.8343  164.9123 C.ar    1  UNL1       -0.0003
     11 C         142.0634  142.5311  166.3739 C.ar    1  UNL1       -0.0042
     12 C         141.2338  143.7947  162.7045 C.ar    1  UNL1        0.0070
     13 C         140.8685  145.0840  162.0305 C.ar    1  UNL1        0.0075
     14 C         141.1805  144.9480  160.5696 C.ar    1  UNL1        0.0355
     15 S         141.7386  143.5746  160.3407 S.2     1  UNL1       -0.0859
     16 C         141.7715  142.8618  161.6602 C.ar    1  UNL1        0.0354
     17 N         140.6292  139.9120  168.4249 N.3     1  UNL1       -0.1819
     18 H         141.4810  139.9295  167.8641 H       1  UNL1        0.1485
     19 S         139.5119  139.5226  167.5031 S.O2    1  UNL1        0.0391
     20 O         140.4674  139.5183  166.3468 O.2     1  UNL1       -0.1576
     21 O         138.5564  139.5268  168.6593 O.2     1  UNL1       -0.1576
     22 C         138.2095  139.8559  165.2798 C.3     1  UNL1        0.0270
     23 C         138.3945  139.1332  166.5811 C.3     1  UNL1        0.1457
     24 C         137.4623  138.0210  166.9605 C.3     1  UNL1        0.0270
@<TRIPOS>BOND
     1    22    23    1
     2    23    24    1
     3    23    19    1
     4    19    20    2
     5    19    21    2
     6    19    17    1
     7     1    17    1
     8     1     2    1
     9     2     3    1
    10     3     4    1
    11     4     5    1
    12     5     6    1
    13     6     7   ar
    14     7     8   ar
    15     8     9   ar
    16     9    12    1
    17    12    13   ar
    18    13    14   ar
    19    14    15   ar
    20    15    16   ar
    21     9    10   ar
    22    10    11   ar
    23     5     1    1
    24    11     6   ar
    25    16    12   ar
    26    17    18    1
@<TRIPOS>MOLECULE
*****
 24 26 0 0 0
SMALL
GASTEIGER

@<TRIPOS>ATOM
      1 C         140.2009  141.3507  169.4286 C.3     1  UNL1        0.1111
      2 C         139.6351  141.7993  170.7434 C.3     1  UNL1        0.1598
      3 O         139.8174  143.2848  170.8438 O.3     1  UNL1       -0.3519
      4 C         140.4957  143.7543  169.5911 C.3     1  UNL1        0.1480
      5 C         140.7328  142.5590  168.7164 C.3     1  UNL1        0.0704
      6 C         141.3869  142.5700  167.3665 C.ar    1  UNL1       -0.0186
      7 C         142.8482  142.2568  167.2386 C.ar    1  UNL1       -0.0042
      8 C         143.5022  142.2678  165.8888 C.ar    1  UNL1       -0.0003
      9 C         142.6949  142.5922  164.6669 C.ar    1  UNL1        0.0005
     10 C         141.2336  142.9054  164.7948 C.ar    1  UNL1       -0.0003
     11 C         140.5796  142.8943  166.1446 C.ar    1  UNL1       -0.0042
     12 C         143.3490  142.6032  163.3170 C.ar    1  UNL1        0.0070
     13 C         144.6645  141.9717  162.9695 C.ar    1  UNL1        0.0075
     14 C         144.9310  142.2258  161.5154 C.ar    1  UNL1        0.0355
     15 S         143.7802  143.0145  160.9642 S.2     1  UNL1       -0.0859
     16 C         142.8025  143.2477  162.0777 C.ar    1  UNL1        0.0354
     17 N         140.2297  139.9413  168.9160 N.3     1  UNL1       -0.1819
     18 H         141.1674  139.7810  168.5480 H       1  UNL1        0.1485
     19 S         139.2666  139.5113  167.8495 S.O2    1  UNL1        0.0391
     20 O         140.3679  139.5674  166.8325 O.2     1  UNL1       -0.1576
     21 O         138.1654  139.4551  168.8663 O.2     1  UNL1       -0.1576
     22 C         138.2231  139.8434  165.4934 C.3     1  UNL1        0.0270
     23 C         138.3036  139.0812  166.7828 C.3     1  UNL1        0.1457
     24 C         137.4212  137.8889  167.0056 C.3     1  UNL1        0.0270
@<TRIPOS>BOND
     1    22    23    1
     2    23    24    1
     3    23    19    1
     4    19    20    2
     5    19    21    2
     6    19    17    1
     7     1    17    1
     8     1     2    1
     9     2     3    1
    10     3     4    1
    11     4     5    1
    12     5     6    1
    13     6     7   ar
    14     7     8   ar
    15     8     9   ar
    16     9    12    1
    17    12    13   ar
    18    13    14   ar
    19    14    15   ar
    20    15    16   ar
    21     9    10   ar
    22    10    11   ar
    23     5     1    1
    24    11     6   ar
    25    16    12   ar
    26    17    18    1
@<TRIPOS>MOLECULE
*****
 24 26 0 0 0
SMALL
GASTEIGER

@<TRIPOS>ATOM
      1 C         139.6759  143.8568  161.0828 C.3     1  UNL1        0.1111
      2 C         140.2202  144.3964  159.7934 C.3     1  UNL1        0.1598
      3 O         141.6143  144.8879  160.0483 O.3     1  UNL1       -0.3519
      4 C         141.9315  144.6521  161.4953 C.3     1  UNL1        0.1480
      5 C         140.7335  144.0148  162.1346 C.3     1  UNL1        0.0704
      6 C         140.6142  143.6072  163.5733 C.ar    1  UNL1       -0.0186
      7 C         139.7213  144.3782  164.4997 C.ar    1  UNL1       -0.0042
      8 C         139.6020  143.9705  165.9382 C.ar    1  UNL1       -0.0003
      9 C         140.3755  142.7918  166.4504 C.ar    1  UNL1        0.0005
     10 C         141.2684  142.0208  165.5240 C.ar    1  UNL1       -0.0003
     11 C         141.3877  142.4285  164.0855 C.ar    1  UNL1       -0.0042
     12 C         140.2561  142.3842  167.8891 C.ar    1  UNL1        0.0070
     13 C         140.3778  143.2932  169.0760 C.ar    1  UNL1        0.0075
     14 C         140.1910  142.4669  170.3139 C.ar    1  UNL1        0.0355
     15 S         139.9539  141.0471  169.8919 S.2     1  UNL1       -0.0859
     16 C         139.9941  140.9960  168.3933 C.ar    1  UNL1        0.0354
     17 N         138.3132  143.2634  161.2848 N.3     1  UNL1       -0.1819
     18 H         137.7838  143.9273  161.8498 H       1  UNL1        0.1485
     19 S         138.1687  141.9231  161.9426 S.O2    1  UNL1        0.0391
     20 O         137.2220  142.5165  162.9435 O.2     1  UNL1       -0.1576
     21 O         139.1154  141.3298  160.9418 O.2     1  UNL1       -0.1576
     22 C         137.8406  139.3521  161.7630 C.3     1  UNL1        0.0270
     23 C         138.0242  140.5829  162.6005 C.3     1  UNL1        0.1457
     24 C         138.0632  140.4734  164.0960 C.3     1  UNL1        0.0270
@<TRIPOS>BOND
     1    22    23    1
     2    23    24    1
     3    23    19    1
     4    19    20    2
     5    19    21    2
     6    19    17    1
     7     1    17    1
     8     1     2    1
     9     2     3    1
    10     3     4    1
    11     4     5    1
    12     5     6    1
    13     6     7   ar
    14     7     8   ar
    15     8     9   ar
    16     9    12    1
    17    12    13   ar
    18    13    14   ar
    19    14    15   ar
    20    15    16   ar
    21     9    10   ar
    22    10    11   ar
    23     5     1    1
    24    11     6   ar
    25    16    12   ar
    26    17    18    1
@<TRIPOS>MOLECULE
*****
 24 26 0 0 0
SMALL
GASTEIGER

@<TRIPOS>ATOM
      1 C         141.4083  144.6721  161.6004 C.3     1  UNL1        0.1111
      2 C         140.9146  145.0237  160.2284 C.3     1  UNL1        0.1598
      3 O         139.6043  144.3256  160.0141 O.3     1  UNL1       -0.3519
      4 C         139.2882  143.5426  161.2539 C.3     1  UNL1        0.1480
      5 C         140.4032  143.7567  162.2342 C.3     1  UNL1        0.0704
      6 C         140.4965  143.1601  163.6074 C.ar    1  UNL1       -0.0186
      7 C         140.9916  141.7550  163.7826 C.ar    1  UNL1       -0.0042
      8 C         141.0849  141.1585  165.1557 C.ar    1  UNL1       -0.0003
      9 C         140.6832  141.9670  166.3535 C.ar    1  UNL1        0.0005
     10 C         140.1881  143.3720  166.1783 C.ar    1  UNL1       -0.0003
     11 C         140.0948  143.9686  164.8053 C.ar    1  UNL1       -0.0042
     12 C         140.7765  141.3704  167.7267 C.ar    1  UNL1        0.0070
     13 C         140.2405  141.9767  168.9897 C.ar    1  UNL1        0.0075
     14 C         140.5550  141.0438  170.1215 C.ar    1  UNL1        0.0355
     15 S         141.2853  139.8610  169.5579 S.2     1  UNL1       -0.0859
     16 C         141.4222  140.0629  168.0778 C.ar    1  UNL1        0.0354
     17 N         142.6833  145.1516  162.2284 N.3     1  UNL1       -0.1819
     18 H         143.2568  145.5330  161.4760 H       1  UNL1        0.1485
     19 S         143.5503  144.1942  162.9910 S.O2    1  UNL1        0.0391
     20 O         143.3862  145.0294  164.2261 O.2     1  UNL1       -0.1576
     21 O         143.7144  143.3590  161.7560 O.2     1  UNL1       -0.1576
     22 C         144.4912  143.3203  165.2495 C.3     1  UNL1        0.0270
     23 C         144.4173  143.2368  163.7537 C.3     1  UNL1        0.1457
     24 C         145.2104  142.1959  163.0206 C.3     1  UNL1        0.0270
@<TRIPOS>BOND
     1    22    23    1
     2    23    24    1
     3    23    19    1
     4    19    20    2
     5    19    21    2
     6    19    17    1
     7     1    17    1
     8     1     2    1
     9     2     3    1
    10     3     4    1
    11     4     5    1
    12     5     6    1
    13     6     7   ar
    14     7     8   ar
    15     8     9   ar
    16     9    12    1
    17    12    13   ar
    18    13    14   ar
    19    14    15   ar
    20    15    16   ar
    21     9    10   ar
    22    10    11   ar
    23     5     1    1
    24    11     6   ar
    25    16    12   ar
    26    17    18    1
@<TRIPOS>MOLECULE
*****
 24 26 0 0 0
SMALL
GASTEIGER

@<TRIPOS>ATOM
      1 C         140.1115  142.6235  161.9248 C.3     1  UNL1        0.1111
      2 C         139.3324  143.0362  160.7113 C.3     1  UNL1        0.1598
      3 O         137.9086  143.2584  161.1281 O.3     1  UNL1       -0.3519
      4 C         137.8080  142.9831  162.5991 C.3     1  UNL1        0.1480
      5 C         139.1694  142.5906  163.0915 C.3     1  UNL1        0.0704
      6 C         139.5261  142.2289  164.5029 C.ar    1  UNL1       -0.0186
      7 C         139.9121  143.3018  165.4775 C.ar    1  UNL1       -0.0042
      8 C         140.2688  142.9400  166.8888 C.ar    1  UNL1       -0.0003
      9 C         140.2395  141.5053  167.3255 C.ar    1  UNL1        0.0005
     10 C         139.8535  140.4324  166.3510 C.ar    1  UNL1       -0.0003
     11 C         139.4968  140.7942  164.9397 C.ar    1  UNL1       -0.0042
     12 C         140.5962  141.1435  168.7369 C.ar    1  UNL1        0.0070
     13 C         139.6586  140.5910  169.7693 C.ar    1  UNL1        0.0075
     14 C         140.4360  140.3767  171.0341 C.ar    1  UNL1        0.0355
     15 S         141.8540  140.7969  170.7835 S.2     1  UNL1       -0.0859
     16 C         141.9530  141.2707  169.3637 C.ar    1  UNL1        0.0354
     17 N         141.5758  142.3003  161.9645 N.3     1  UNL1       -0.1819
     18 H         141.6514  141.2961  162.1265 H       1  UNL1        0.1485
     19 S         142.4646  142.9694  162.9706 S.O2    1  UNL1        0.0391
     20 O         142.1492  144.3036  162.3619 O.2     1  UNL1       -0.1576
     21 O         142.7799  141.6353  163.5793 O.2     1  UNL1       -0.1576
     22 C         144.0038  142.8289  165.0589 C.3     1  UNL1        0.0270
     23 C         143.3533  143.6386  163.9767 C.3     1  UNL1        0.1457
     24 C         143.5917  145.1176  163.9005 C.3     1  UNL1        0.0270
@<TRIPOS>BOND
     1    22    23    1
     2    23    24    1
     3    23    19    1
     4    19    20    2
     5    19    21    2
     6    19    17    1
     7     1    17    1
     8     1     2    1
     9     2     3    1
    10     3     4    1
    11     4     5    1
    12     5     6    1
    13     6     7   ar
    14     7     8   ar
    15     8     9   ar
    16     9    12    1
    17    12    13   ar
    18    13    14   ar
    19    14    15   ar
    20    15    16   ar
    21     9    10   ar
    22    10    11   ar
    23     5     1    1
    24    11     6   ar
    25    16    12   ar
    26    17    18    1
