@<TRIPOS>MOLECULE
*****
 30 34 0 0 0
SMALL
GASTEIGER

@<TRIPOS>ATOM
      1 C         140.4560  139.1868  164.8254 C.ar    1  UNL1        0.0681
      2 C         139.8850  139.9727  163.6825 C.ar    1  UNL1        0.0208
      3 C         140.0659  139.4881  162.2745 C.ar    1  UNL1        0.0384
      4 C         140.8179  138.2176  162.0095 C.ar    1  UNL1        0.1385
      5 C         141.3889  137.4316  163.1524 C.ar    1  UNL1        0.0384
      6 C         141.2080  137.9163  164.5604 C.ar    1  UNL1        0.0208
      7 C         138.0530  138.3364  166.4073 C.3     1  UNL1        0.0723
      8 C         139.0736  139.2463  167.0244 C.ar    1  UNL1        0.1268
      9 N         138.8926  139.7309  168.4323 N.ar    1  UNL1       -0.2318
     10 C         139.9131  140.6408  169.0494 C.ar    1  UNL1        0.0880
     11 C         139.7322  141.1254  170.4573 C.ar    1  UNL1        0.0194
     12 C         140.7527  142.0352  171.0743 C.ar    1  UNL1        0.0024
     13 C         141.9542  142.4604  170.2834 C.ar    1  UNL1        0.0116
     14 C         142.1352  141.9758  168.8754 C.ar    1  UNL1        0.0637
     15 CL        143.3367  142.4010  168.0845 Cl      1  UNL1       -0.0820
     16 C         141.1146  141.0660  168.2584 C.ar    1  UNL1        0.0847
     17 C         141.2956  140.5813  166.8504 C.ar    1  UNL1        0.2678
     18 O         142.4971  141.0065  166.0595 O.2     1  UNL1       -0.2665
     19 N         140.2751  139.6715  166.2334 N.ar    1  UNL1       -0.2626
     20 O         140.9988  137.7329  160.6015 O.3     1  UNL1       -0.4791
     21 C         141.9675  138.4248  159.6888 C.3     1  UNL1        0.1687
     22 C         142.9598  139.4004  160.2489 C.3     1  UNL1        0.0609
     23 C         143.9284  140.0923  159.3363 C.3     1  UNL1        0.0758
     24 N         143.9048  139.8086  157.8635 N.3     1  UNL1       -0.2737
     25 C         142.9126  138.8330  157.3034 C.3     1  UNL1        0.0758
     26 C         141.9439  138.1411  158.2161 C.3     1  UNL1        0.0609
     27 C         144.8735  140.5005  156.9508 C.3     1  UNL1        0.0575
     28 C         145.5872  141.8198  156.9652 C.3     1  UNL1        0.0160
     29 C         146.2433  141.4790  155.6601 C.3     1  UNL1        0.0028
     30 C         145.5297  140.1598  155.6457 C.3     1  UNL1        0.0160
@<TRIPOS>BOND
     1     7     8    1
     2     8     9   ar
     3     9    10   ar
     4    10    11   ar
     5    11    12   ar
     6    12    13   ar
     7    13    14   ar
     8    14    15    1
     9    14    16   ar
    10    16    17   ar
    11    17    18    2
    12    17    19   ar
    13    19     1    1
    14     1     2   ar
    15     2     3   ar
    16     3     4   ar
    17     4    20    1
    18    20    21    1
    19    21    22    1
    20    22    23    1
    21    23    24    1
    22    24    27    1
    23    27    28    1
    24    28    29    1
    25    29    30    1
    26    24    25    1
    27    25    26    1
    28     4     5   ar
    29     5     6   ar
    30    19     8   ar
    31     6     1   ar
    32    16    10   ar
    33    26    21    1
    34    30    27    1
@<TRIPOS>MOLECULE
*****
 30 34 0 0 0
SMALL
GASTEIGER

@<TRIPOS>ATOM
      1 C         139.6954  139.3865  164.8762 C.ar    1  UNL1        0.0681
      2 C         140.1615  138.0283  164.4426 C.ar    1  UNL1        0.0208
      3 C         139.9797  137.5920  163.0190 C.ar    1  UNL1        0.0384
      4 C         139.3319  138.5140  162.0290 C.ar    1  UNL1        0.1385
      5 C         138.8658  139.8723  162.4626 C.ar    1  UNL1        0.0384
      6 C         139.0475  140.3085  163.8861 C.ar    1  UNL1        0.0208
      7 C         137.7290  138.5248  166.9716 C.3     1  UNL1        0.0723
      8 C         138.8939  139.3919  167.3476 C.ar    1  UNL1        0.1268
      9 N         139.0756  139.8281  168.7712 N.ar    1  UNL1       -0.2318
     10 C         140.2405  140.6951  169.1471 C.ar    1  UNL1        0.0880
     11 C         140.4222  141.1313  170.5707 C.ar    1  UNL1        0.0194
     12 C         141.5871  141.9983  170.9466 C.ar    1  UNL1        0.0024
     13 C         142.5703  142.4292  169.8988 C.ar    1  UNL1        0.0116
     14 C         142.3886  141.9930  168.4752 C.ar    1  UNL1        0.0637
     15 CL        143.3717  142.4239  167.4275 Cl      1  UNL1       -0.0820
     16 C         141.2237  141.1260  168.0994 C.ar    1  UNL1        0.0847
     17 C         141.0420  140.6898  166.6757 C.ar    1  UNL1        0.2678
     18 O         142.0251  141.1206  165.6280 O.2     1  UNL1       -0.2665
     19 N         139.8771  139.8227  166.2998 N.ar    1  UNL1       -0.2626
     20 O         139.1502  138.0778  160.6053 O.3     1  UNL1       -0.4791
     21 C         140.2340  138.3300  159.5995 C.3     1  UNL1        0.1687
     22 C         139.9023  138.3860  158.1376 C.3     1  UNL1        0.0609
     23 C         140.9861  138.6382  157.1318 C.3     1  UNL1        0.0758
     24 N         142.4016  138.8344  157.5878 N.3     1  UNL1       -0.2737
     25 C         142.7333  138.7785  159.0496 C.3     1  UNL1        0.0758
     26 C         141.6494  138.5263  160.0554 C.3     1  UNL1        0.0609
     27 C         143.4854  139.0866  156.5819 C.3     1  UNL1        0.0575
     28 C         144.0313  138.3398  155.4011 C.3     1  UNL1        0.0160
     29 C         145.0182  139.4433  155.1595 C.3     1  UNL1        0.0028
     30 C         144.4723  140.1900  156.3402 C.3     1  UNL1        0.0160
@<TRIPOS>BOND
     1     7     8    1
     2     8     9   ar
     3     9    10   ar
     4    10    11   ar
     5    11    12   ar
     6    12    13   ar
     7    13    14   ar
     8    14    15    1
     9    14    16   ar
    10    16    17   ar
    11    17    18    2
    12    17    19   ar
    13    19     1    1
    14     1     2   ar
    15     2     3   ar
    16     3     4   ar
    17     4    20    1
    18    20    21    1
    19    21    22    1
    20    22    23    1
    21    23    24    1
    22    24    27    1
    23    27    28    1
    24    28    29    1
    25    29    30    1
    26    24    25    1
    27    25    26    1
    28     4     5   ar
    29     5     6   ar
    30    19     8   ar
    31     6     1   ar
    32    16    10   ar
    33    26    21    1
    34    30    27    1
@<TRIPOS>MOLECULE
*****
 30 34 0 0 0
SMALL
GASTEIGER

@<TRIPOS>ATOM
      1 C         140.9365  139.4090  160.2662 C.ar    1  UNL1        0.0681
      2 C         140.5056  139.4049  158.8294 C.ar    1  UNL1        0.0208
      3 C         141.3039  138.6487  157.8091 C.ar    1  UNL1        0.0384
      4 C         142.5331  137.8967  158.2257 C.ar    1  UNL1        0.1385
      5 C         142.9639  137.9007  159.6625 C.ar    1  UNL1        0.0384
      6 C         142.1656  138.6569  160.6827 C.ar    1  UNL1        0.0208
      7 C         138.7870  138.0123  161.8247 C.3     1  UNL1        0.0723
      8 C         139.0633  139.4668  162.0657 C.ar    1  UNL1        0.1268
      9 N         138.2650  140.2229  163.0859 N.ar    1  UNL1       -0.2318
     10 C         138.5413  141.6775  163.3269 C.ar    1  UNL1        0.0880
     11 C         137.7430  142.4336  164.3471 C.ar    1  UNL1        0.0194
     12 C         138.0194  143.8880  164.5880 C.ar    1  UNL1        0.0024
     13 C         139.0941  144.5864  163.8088 C.ar    1  UNL1        0.0116
     14 C         139.8925  143.8303  162.7886 C.ar    1  UNL1        0.0637
     15 CL        140.9672  144.5286  162.0093 Cl      1  UNL1       -0.0820
     16 C         139.6161  142.3758  162.5476 C.ar    1  UNL1        0.0847
     17 C         140.4145  141.6196  161.5274 C.ar    1  UNL1        0.2678
     18 O         141.4892  142.3180  160.7481 O.2     1  UNL1       -0.2665
     19 N         140.1381  140.1652  161.2864 N.ar    1  UNL1       -0.2626
     20 O         143.3315  137.1405  157.2055 O.3     1  UNL1       -0.4791
     21 C         142.8781  135.7839  156.7535 C.3     1  UNL1        0.1687
     22 C         141.8655  135.6593  155.6539 C.3     1  UNL1        0.0609
     23 C         141.4122  134.3028  155.2020 C.3     1  UNL1        0.0758
     24 N         141.9715  133.0708  155.8497 N.3     1  UNL1       -0.2737
     25 C         142.9841  133.1954  156.9492 C.3     1  UNL1        0.0758
     26 C         143.4374  134.5520  157.4011 C.3     1  UNL1        0.0609
     27 C         141.5182  131.7142  155.3977 C.3     1  UNL1        0.0575
     28 C         140.3302  131.1881  154.6480 C.3     1  UNL1        0.0160
     29 C         140.8771  129.7958  154.7586 C.3     1  UNL1        0.0028
     30 C         142.0650  130.3218  155.5082 C.3     1  UNL1        0.0160
@<TRIPOS>BOND
     1     7     8    1
     2     8     9   ar
     3     9    10   ar
     4    10    11   ar
     5    11    12   ar
     6    12    13   ar
     7    13    14   ar
     8    14    15    1
     9    14    16   ar
    10    16    17   ar
    11    17    18    2
    12    17    19   ar
    13    19     1    1
    14     1     2   ar
    15     2     3   ar
    16     3     4   ar
    17     4    20    1
    18    20    21    1
    19    21    22    1
    20    22    23    1
    21    23    24    1
    22    24    27    1
    23    27    28    1
    24    28    29    1
    25    29    30    1
    26    24    25    1
    27    25    26    1
    28     4     5   ar
    29     5     6   ar
    30    19     8   ar
    31     6     1   ar
    32    16    10   ar
    33    26    21    1
    34    30    27    1
@<TRIPOS>MOLECULE
*****
 30 34 0 0 0
SMALL
GASTEIGER

@<TRIPOS>ATOM
      1 C         142.1392  138.7414  159.8860 C.ar    1  UNL1        0.0681
      2 C         142.1937  137.7428  161.0040 C.ar    1  UNL1        0.0208
      3 C         143.0220  138.0253  162.2222 C.ar    1  UNL1        0.0384
      4 C         143.7957  139.3064  162.3225 C.ar    1  UNL1        0.1385
      5 C         143.7412  140.3050  161.2045 C.ar    1  UNL1        0.0384
      6 C         142.9129  140.0225  159.9863 C.ar    1  UNL1        0.0208
      7 C         139.3086  139.7240  159.7358 C.3     1  UNL1        0.0723
      8 C         139.8956  138.9501  158.5926 C.ar    1  UNL1        0.1268
      9 N         139.0673  138.6676  157.3745 N.ar    1  UNL1       -0.2318
     10 C         139.6542  137.8937  156.2313 C.ar    1  UNL1        0.0880
     11 C         138.8259  137.6111  155.0132 C.ar    1  UNL1        0.0194
     12 C         139.4128  136.8373  153.8701 C.ar    1  UNL1        0.0024
     13 C         140.8281  136.3460  153.9452 C.ar    1  UNL1        0.0116
     14 C         141.6564  136.6285  155.1634 C.ar    1  UNL1        0.0637
     15 CL        143.0717  136.1372  155.2385 Cl      1  UNL1       -0.0820
     16 C         141.0694  137.4024  156.3065 C.ar    1  UNL1        0.0847
     17 C         141.8978  137.6849  157.5247 C.ar    1  UNL1        0.2678
     18 O         143.3130  137.1936  157.5999 O.2     1  UNL1       -0.2665
     19 N         141.3108  138.4588  158.6678 N.ar    1  UNL1       -0.2626
     20 O         144.6240  139.5890  163.5407 O.3     1  UNL1       -0.4791
     21 C         144.0061  140.2685  164.7267 C.3     1  UNL1        0.1687
     22 C         143.2869  139.4587  165.7646 C.3     1  UNL1        0.0609
     23 C         142.6690  140.1381  166.9505 C.3     1  UNL1        0.0758
     24 N         142.7703  141.6274  167.0986 N.3     1  UNL1       -0.2737
     25 C         143.4895  142.4371  166.0608 C.3     1  UNL1        0.0758
     26 C         144.1074  141.7577  164.8749 C.3     1  UNL1        0.0609
     27 C         142.1524  142.3069  168.2846 C.3     1  UNL1        0.0575
     28 C         140.7881  142.8383  168.6109 C.3     1  UNL1        0.0160
     29 C         141.2786  143.2678  169.9618 C.3     1  UNL1        0.0028
     30 C         142.6427  142.7364  169.6356 C.3     1  UNL1        0.0160
@<TRIPOS>BOND
     1     7     8    1
     2     8     9   ar
     3     9    10   ar
     4    10    11   ar
     5    11    12   ar
     6    12    13   ar
     7    13    14   ar
     8    14    15    1
     9    14    16   ar
    10    16    17   ar
    11    17    18    2
    12    17    19   ar
    13    19     1    1
    14     1     2   ar
    15     2     3   ar
    16     3     4   ar
    17     4    20    1
    18    20    21    1
    19    21    22    1
    20    22    23    1
    21    23    24    1
    22    24    27    1
    23    27    28    1
    24    28    29    1
    25    29    30    1
    26    24    25    1
    27    25    26    1
    28     4     5   ar
    29     5     6   ar
    30    19     8   ar
    31     6     1   ar
    32    16    10   ar
    33    26    21    1
    34    30    27    1
@<TRIPOS>MOLECULE
*****
 30 34 0 0 0
SMALL
GASTEIGER

@<TRIPOS>ATOM
      1 C         139.1455  140.2062  164.6761 C.ar    1  UNL1        0.0681
      2 C         138.0655  141.1547  164.2472 C.ar    1  UNL1        0.0208
      3 C         137.5263  141.0945  162.8488 C.ar    1  UNL1        0.0384
      4 C         138.0671  140.0858  161.8793 C.ar    1  UNL1        0.1385
      5 C         139.1471  139.1373  162.3082 C.ar    1  UNL1        0.0384
      6 C         139.6863  139.1975  163.7066 C.ar    1  UNL1        0.0208
      7 C         137.7252  138.7703  166.8944 C.3     1  UNL1        0.0723
      8 C         138.9745  139.5485  167.1838 C.ar    1  UNL1        0.1268
      9 N         139.5137  139.6087  168.5822 N.ar    1  UNL1       -0.2318
     10 C         140.7630  140.3869  168.8715 C.ar    1  UNL1        0.0880
     11 C         141.3021  140.4471  170.2700 C.ar    1  UNL1        0.0194
     12 C         142.5514  141.2253  170.5592 C.ar    1  UNL1        0.0024
     13 C         143.2615  141.9432  169.4501 C.ar    1  UNL1        0.0116
     14 C         142.7224  141.8830  168.0516 C.ar    1  UNL1        0.0637
     15 CL        143.4325  142.6010  166.9425 Cl      1  UNL1       -0.0820
     16 C         141.4731  141.1048  167.7624 C.ar    1  UNL1        0.0847
     17 C         140.9339  141.0446  166.3639 C.ar    1  UNL1        0.2678
     18 O         141.6441  141.7626  165.2547 O.2     1  UNL1       -0.2665
     19 N         139.6847  140.2664  166.0746 N.ar    1  UNL1       -0.2626
     20 O         137.5279  140.0256  160.4808 O.3     1  UNL1       -0.4791
     21 C         138.0065  141.0042  159.4497 C.3     1  UNL1        0.1687
     22 C         138.7921  142.2113  159.8689 C.3     1  UNL1        0.0609
     23 C         139.2708  143.1899  158.8378 C.3     1  UNL1        0.0758
     24 N         138.9638  142.9614  157.3874 N.3     1  UNL1       -0.2737
     25 C         138.1783  141.7543  156.9682 C.3     1  UNL1        0.0758
     26 C         137.6996  140.7757  157.9993 C.3     1  UNL1        0.0609
     27 C         139.4425  143.9400  156.3563 C.3     1  UNL1        0.0575
     28 C         140.7455  144.1918  155.6571 C.3     1  UNL1        0.0160
     29 C         140.1194  145.3239  154.8980 C.3     1  UNL1        0.0028
     30 C         138.8164  145.0722  155.5972 C.3     1  UNL1        0.0160
@<TRIPOS>BOND
     1     7     8    1
     2     8     9   ar
     3     9    10   ar
     4    10    11   ar
     5    11    12   ar
     6    12    13   ar
     7    13    14   ar
     8    14    15    1
     9    14    16   ar
    10    16    17   ar
    11    17    18    2
    12    17    19   ar
    13    19     1    1
    14     1     2   ar
    15     2     3   ar
    16     3     4   ar
    17     4    20    1
    18    20    21    1
    19    21    22    1
    20    22    23    1
    21    23    24    1
    22    24    27    1
    23    27    28    1
    24    28    29    1
    25    29    30    1
    26    24    25    1
    27    25    26    1
    28     4     5   ar
    29     5     6   ar
    30    19     8   ar
    31     6     1   ar
    32    16    10   ar
    33    26    21    1
    34    30    27    1
@<TRIPOS>MOLECULE
*****
 30 34 0 0 0
SMALL
GASTEIGER

@<TRIPOS>ATOM
      1 C         140.4586  139.7444  162.3575 C.ar    1  UNL1        0.0681
      2 C         139.9400  138.5036  161.6930 C.ar    1  UNL1        0.0208
      3 C         140.0067  138.3683  160.2006 C.ar    1  UNL1        0.0384
      4 C         140.5922  139.4736  159.3728 C.ar    1  UNL1        0.1385
      5 C         141.1108  140.7144  160.0373 C.ar    1  UNL1        0.0384
      6 C         141.0440  140.8497  161.5296 C.ar    1  UNL1        0.0208
      7 C         138.0282  140.9393  163.6479 C.3     1  UNL1        0.0723
      8 C         139.1766  140.4772  164.4951 C.ar    1  UNL1        0.1268
      9 N         139.1098  140.6125  165.9875 N.ar    1  UNL1       -0.2318
     10 C         140.2582  140.1504  166.8347 C.ar    1  UNL1        0.0880
     11 C         140.1913  140.2857  168.3271 C.ar    1  UNL1        0.0194
     12 C         141.3397  139.8236  169.1742 C.ar    1  UNL1        0.0024
     13 C         142.5549  139.2261  168.5290 C.ar    1  UNL1        0.0116
     14 C         142.6217  139.0907  167.0366 C.ar    1  UNL1        0.0637
     15 CL        143.8369  138.4933  166.3914 Cl      1  UNL1       -0.0820
     16 C         141.4734  139.5529  166.1895 C.ar    1  UNL1        0.0847
     17 C         141.5402  139.4176  164.6970 C.ar    1  UNL1        0.2678
     18 O         142.7554  138.8201  164.0518 O.2     1  UNL1       -0.2665
     19 N         140.3918  139.8797  163.8499 N.ar    1  UNL1       -0.2626
     20 O         140.6590  139.3383  157.8803 O.3     1  UNL1       -0.4791
     21 C         141.1108  138.0477  157.2638 C.3     1  UNL1        0.1687
     22 C         142.4443  137.4672  157.6314 C.3     1  UNL1        0.0609
     23 C         142.8961  136.1766  157.0148 C.3     1  UNL1        0.0758
     24 N         142.0145  135.4664  156.0307 N.3     1  UNL1       -0.2737
     25 C         140.6811  136.0469  155.6631 C.3     1  UNL1        0.0758
     26 C         140.2293  137.3375  156.2797 C.3     1  UNL1        0.0609
     27 C         142.4663  134.1758  155.4141 C.3     1  UNL1        0.0575
     28 C         143.6136  133.2364  155.6409 C.3     1  UNL1        0.0160
     29 C         143.1053  132.3506  154.5422 C.3     1  UNL1        0.0028
     30 C         141.9582  133.2900  154.3155 C.3     1  UNL1        0.0160
@<TRIPOS>BOND
     1     7     8    1
     2     8     9   ar
     3     9    10   ar
     4    10    11   ar
     5    11    12   ar
     6    12    13   ar
     7    13    14   ar
     8    14    15    1
     9    14    16   ar
    10    16    17   ar
    11    17    18    2
    12    17    19   ar
    13    19     1    1
    14     1     2   ar
    15     2     3   ar
    16     3     4   ar
    17     4    20    1
    18    20    21    1
    19    21    22    1
    20    22    23    1
    21    23    24    1
    22    24    27    1
    23    27    28    1
    24    28    29    1
    25    29    30    1
    26    24    25    1
    27    25    26    1
    28     4     5   ar
    29     5     6   ar
    30    19     8   ar
    31     6     1   ar
    32    16    10   ar
    33    26    21    1
    34    30    27    1
@<TRIPOS>MOLECULE
*****
 30 34 0 0 0
SMALL
GASTEIGER

@<TRIPOS>ATOM
      1 C         138.6237  140.8056  160.0525 C.ar    1  UNL1        0.0681
      2 C         137.8724  141.1518  161.3037 C.ar    1  UNL1        0.0208
      3 C         137.9351  140.2396  162.4929 C.ar    1  UNL1        0.0384
      4 C         138.7492  138.9813  162.4307 C.ar    1  UNL1        0.1385
      5 C         139.5005  138.6352  161.1794 C.ar    1  UNL1        0.0384
      6 C         139.4378  139.5473  159.9903 C.ar    1  UNL1        0.0208
      7 C         140.5018  143.1361  159.8490 C.3     1  UNL1        0.0723
      8 C         139.5000  142.8831  158.7616 C.ar    1  UNL1        0.1268
      9 N         139.4372  143.7953  157.5725 N.ar    1  UNL1       -0.2318
     10 C         138.4354  143.5422  156.4851 C.ar    1  UNL1        0.0880
     11 C         138.3727  144.4544  155.2960 C.ar    1  UNL1        0.0194
     12 C         137.3709  144.2013  154.2087 C.ar    1  UNL1        0.0024
     13 C         136.4319  143.0360  154.3104 C.ar    1  UNL1        0.0116
     14 C         136.4946  142.1238  155.4995 C.ar    1  UNL1        0.0637
     15 CL        135.5556  140.9585  155.6012 Cl      1  UNL1       -0.0820
     16 C         137.4964  142.3769  156.5868 C.ar    1  UNL1        0.0847
     17 C         137.5592  141.4647  157.7760 C.ar    1  UNL1        0.2678
     18 O         136.6201  140.2994  157.8777 O.2     1  UNL1       -0.2665
     19 N         138.5609  141.7178  158.8633 N.ar    1  UNL1       -0.2626
     20 O         138.8120  138.0691  163.6199 O.3     1  UNL1       -0.4791
     21 C         139.1542  138.6217  164.9717 C.3     1  UNL1        0.1687
     22 C         140.5424  139.1174  165.2498 C.3     1  UNL1        0.0609
     23 C         140.8847  139.6699  166.6017 C.3     1  UNL1        0.0758
     24 N         139.8388  139.7268  167.6754 N.3     1  UNL1       -0.2737
     25 C         138.4507  139.2312  167.3973 C.3     1  UNL1        0.0758
     26 C         138.1084  138.6786  166.0454 C.3     1  UNL1        0.0609
     27 C         140.1810  140.2794  169.0273 C.3     1  UNL1        0.0575
     28 C         139.8154  141.5179  169.7906 C.3     1  UNL1        0.0160
     29 C         140.6651  141.0608  170.9391 C.3     1  UNL1        0.0028
     30 C         141.0307  139.8224  170.1759 C.3     1  UNL1        0.0160
@<TRIPOS>BOND
     1     7     8    1
     2     8     9   ar
     3     9    10   ar
     4    10    11   ar
     5    11    12   ar
     6    12    13   ar
     7    13    14   ar
     8    14    15    1
     9    14    16   ar
    10    16    17   ar
    11    17    18    2
    12    17    19   ar
    13    19     1    1
    14     1     2   ar
    15     2     3   ar
    16     3     4   ar
    17     4    20    1
    18    20    21    1
    19    21    22    1
    20    22    23    1
    21    23    24    1
    22    24    27    1
    23    27    28    1
    24    28    29    1
    25    29    30    1
    26    24    25    1
    27    25    26    1
    28     4     5   ar
    29     5     6   ar
    30    19     8   ar
    31     6     1   ar
    32    16    10   ar
    33    26    21    1
    34    30    27    1
@<TRIPOS>MOLECULE
*****
 30 34 0 0 0
SMALL
GASTEIGER

@<TRIPOS>ATOM
      1 C         142.1614  141.5108  164.1947 C.ar    1  UNL1        0.0681
      2 C         141.3620  142.4758  163.3703 C.ar    1  UNL1        0.0208
      3 C         141.2286  142.2673  161.8909 C.ar    1  UNL1        0.0384
      4 C         141.8946  141.0937  161.2359 C.ar    1  UNL1        0.1385
      5 C         142.6940  140.1286  162.0603 C.ar    1  UNL1        0.0384
      6 C         142.8274  140.3372  163.5397 C.ar    1  UNL1        0.0208
      7 C         144.4524  143.1129  165.2831 C.3     1  UNL1        0.0723
      8 C         143.4403  142.5204  166.2184 C.ar    1  UNL1        0.1268
      9 N         143.5737  142.7290  167.6978 N.ar    1  UNL1       -0.2318
     10 C         142.5616  142.1366  168.6331 C.ar    1  UNL1        0.0880
     11 C         142.6950  142.3452  170.1125 C.ar    1  UNL1        0.0194
     12 C         141.6829  141.7527  171.0477 C.ar    1  UNL1        0.0024
     13 C         140.5374  140.9517  170.5035 C.ar    1  UNL1        0.0116
     14 C         140.4040  140.7431  169.0241 C.ar    1  UNL1        0.0637
     15 CL        139.2585  139.9420  168.4799 Cl      1  UNL1       -0.0820
     16 C         141.4161  141.3355  168.0889 C.ar    1  UNL1        0.0847
     17 C         141.2827  141.1269  166.6094 C.ar    1  UNL1        0.2678
     18 O         140.1372  140.3259  166.0652 O.2     1  UNL1       -0.2665
     19 N         142.2948  141.7194  165.6742 N.ar    1  UNL1       -0.2626
     20 O         141.7612  140.8851  159.7565 O.3     1  UNL1       -0.4791
     21 C         142.9414  141.1088  158.8581 C.3     1  UNL1        0.1687
     22 C         143.8386  142.2906  159.0788 C.3     1  UNL1        0.0609
     23 C         145.0188  142.5143  158.1804 C.3     1  UNL1        0.0758
     24 N         145.3018  141.5562  157.0614 N.3     1  UNL1       -0.2737
     25 C         144.4046  140.3746  156.8408 C.3     1  UNL1        0.0758
     26 C         143.2244  140.1509  157.7391 C.3     1  UNL1        0.0609
     27 C         146.4820  141.7799  156.1630 C.3     1  UNL1        0.0575
     28 C         147.8208  142.4392  156.3150 C.3     1  UNL1        0.0160
     29 C         148.1511  142.0963  154.8926 C.3     1  UNL1        0.0028
     30 C         146.8124  141.4371  154.7406 C.3     1  UNL1        0.0160
@<TRIPOS>BOND
     1     7     8    1
     2     8     9   ar
     3     9    10   ar
     4    10    11   ar
     5    11    12   ar
     6    12    13   ar
     7    13    14   ar
     8    14    15    1
     9    14    16   ar
    10    16    17   ar
    11    17    18    2
    12    17    19   ar
    13    19     1    1
    14     1     2   ar
    15     2     3   ar
    16     3     4   ar
    17     4    20    1
    18    20    21    1
    19    21    22    1
    20    22    23    1
    21    23    24    1
    22    24    27    1
    23    27    28    1
    24    28    29    1
    25    29    30    1
    26    24    25    1
    27    25    26    1
    28     4     5   ar
    29     5     6   ar
    30    19     8   ar
    31     6     1   ar
    32    16    10   ar
    33    26    21    1
    34    30    27    1
@<TRIPOS>MOLECULE
*****
 30 34 0 0 0
SMALL
GASTEIGER

@<TRIPOS>ATOM
      1 C         142.6214  139.2493  162.4041 C.ar    1  UNL1        0.0681
      2 C         142.9488  137.8845  161.8750 C.ar    1  UNL1        0.0208
      3 C         143.1924  137.6872  160.4081 C.ar    1  UNL1        0.0384
      4 C         143.1086  138.8549  159.4704 C.ar    1  UNL1        0.1385
      5 C         142.7812  140.2198  159.9994 C.ar    1  UNL1        0.0384
      6 C         142.5376  140.4170  161.4663 C.ar    1  UNL1        0.0208
      7 C         144.9359  139.6732  164.2652 C.3     1  UNL1        0.0723
      8 C         143.5351  139.6585  164.8016 C.ar    1  UNL1        0.1268
      9 N         143.2916  139.8557  166.2685 N.ar    1  UNL1       -0.2318
     10 C         141.8908  139.8409  166.8049 C.ar    1  UNL1        0.0880
     11 C         141.6473  140.0381  168.2718 C.ar    1  UNL1        0.0194
     12 C         140.2466  140.0233  168.8081 C.ar    1  UNL1        0.0024
     13 C         139.0894  139.8113  167.8775 C.ar    1  UNL1        0.0116
     14 C         139.3329  139.6142  166.4107 C.ar    1  UNL1        0.0637
     15 CL        138.1756  139.4022  165.4801 Cl      1  UNL1       -0.0820
     16 C         140.7336  139.6289  165.8743 C.ar    1  UNL1        0.0847
     17 C         140.9771  139.4317  164.4074 C.ar    1  UNL1        0.2678
     18 O         139.8199  139.2198  163.4768 O.2     1  UNL1       -0.2665
     19 N         142.3779  139.4465  163.8710 N.ar    1  UNL1       -0.2626
     20 O         143.3521  138.6577  158.0034 O.3     1  UNL1       -0.4791
     21 C         142.1993  138.3943  157.0805 C.3     1  UNL1        0.1687
     22 C         142.3893  138.4938  155.5959 C.3     1  UNL1        0.0609
     23 C         141.2365  138.2304  154.6730 C.3     1  UNL1        0.0758
     24 N         139.8938  137.8675  155.2347 N.3     1  UNL1       -0.2737
     25 C         139.7039  137.7680  156.7193 C.3     1  UNL1        0.0758
     26 C         140.8567  138.0314  157.6422 C.3     1  UNL1        0.0609
     27 C         138.7410  137.6041  154.3119 C.3     1  UNL1        0.0575
     28 C         137.2629  137.8548  154.3626 C.3     1  UNL1        0.0160
     29 C         137.1108  137.2316  153.0067 C.3     1  UNL1        0.0028
     30 C         138.5887  136.9809  152.9560 C.3     1  UNL1        0.0160
@<TRIPOS>BOND
     1     7     8    1
     2     8     9   ar
     3     9    10   ar
     4    10    11   ar
     5    11    12   ar
     6    12    13   ar
     7    13    14   ar
     8    14    15    1
     9    14    16   ar
    10    16    17   ar
    11    17    18    2
    12    17    19   ar
    13    19     1    1
    14     1     2   ar
    15     2     3   ar
    16     3     4   ar
    17     4    20    1
    18    20    21    1
    19    21    22    1
    20    22    23    1
    21    23    24    1
    22    24    27    1
    23    27    28    1
    24    28    29    1
    25    29    30    1
    26    24    25    1
    27    25    26    1
    28     4     5   ar
    29     5     6   ar
    30    19     8   ar
    31     6     1   ar
    32    16    10   ar
    33    26    21    1
    34    30    27    1
