@<TRIPOS>MOLECULE
*****
 28 30 0 0 0
SMALL
GASTEIGER

@<TRIPOS>ATOM
      1 C         140.6770  138.0271  157.6832 C.2     1  UNL1        0.2543
      2 O         139.3301  138.0017  157.0237 O.2     1  UNL1       -0.2722
      3 N         140.8121  138.5173  159.0944 N.am    1  UNL1       -0.2740
      4 C         142.1591  138.5427  159.7539 C.3     1  UNL1        0.1150
      5 C         142.2941  139.0330  161.1651 C.3     1  UNL1        0.1165
      6 N         141.0821  139.4979  161.9167 N.am    1  UNL1       -0.2605
      7 C         141.2171  139.9882  163.3278 C.2     1  UNL1        0.3078
      8 O         140.0051  140.4532  164.0795 O.2     1  UNL1       -0.2522
      9 N         142.5641  140.0136  163.9874 N.am    1  UNL1       -0.2681
     10 C         139.7351  139.4726  161.2572 C.3     1  UNL1        0.1165
     11 C         139.6001  138.9823  159.8461 C.3     1  UNL1        0.1150
     12 H         143.3596  139.7084  163.4940 H       1  UNL1        0.1564
     13 C         142.6991  140.5039  165.3986 C.ar    1  UNL1        0.0525
     14 C         143.0212  141.9446  165.6644 C.ar    1  UNL1        0.0156
     15 C         143.1562  142.4349  167.0755 C.ar    1  UNL1        0.0135
     16 C         142.9691  141.4845  168.2208 C.ar    1  UNL1        0.0683
     17 CL        143.1041  141.9749  169.6320 Cl      1  UNL1       -0.0814
     18 C         142.6470  140.0438  167.9550 C.ar    1  UNL1        0.0694
     19 CL        142.4600  139.0935  169.1004 Cl      1  UNL1       -0.0813
     20 C         142.5121  139.5535  166.5439 C.ar    1  UNL1        0.0270
     21 N         143.4595  135.6407  156.1622 N.3     1  UNL1       -0.2681
     22 C         144.3129  136.6322  155.4283 C.3     1  UNL1        0.1047
     23 C         143.9543  138.0886  155.4459 C.3     1  UNL1        0.1600
     24 O         142.7424  138.5536  156.1976 O.3     1  UNL1       -0.3442
     25 C         141.8890  137.5621  156.9315 C.3     1  UNL1        0.2069
     26 C         142.2476  136.1057  156.9138 C.3     1  UNL1        0.1116
     27 C         144.0954  133.4645  157.4310 C.3     1  UNL1        0.0188
     28 C         143.8181  134.1843  156.1445 C.3     1  UNL1        0.0723
@<TRIPOS>BOND
     1    27    28    1
     2    28    21    1
     3    21    22    1
     4    22    23    1
     5    23    24    1
     6    24    25    1
     7    25     1    1
     8     1     2    2
     9     1     3   am
    10     3     4    1
    11     4     5    1
    12     5     6    1
    13     6     7   am
    14     7     8    2
    15     7     9   am
    16     9    13    1
    17    13    14   ar
    18    14    15   ar
    19    15    16   ar
    20    16    17    1
    21    16    18   ar
    22    18    19    1
    23    18    20   ar
    24     6    10    1
    25    10    11    1
    26    25    26    1
    27    26    21    1
    28    11     3    1
    29    20    13   ar
    30     9    12    1
@<TRIPOS>MOLECULE
*****
 28 30 0 0 0
SMALL
GASTEIGER

@<TRIPOS>ATOM
      1 C         143.5975  137.3831  156.1896 C.2     1  UNL1        0.2543
      2 O         144.7802  137.7947  155.3639 O.2     1  UNL1       -0.2722
      3 N         143.0217  138.3307  157.1997 N.am    1  UNL1       -0.2740
      4 C         141.8390  137.9191  158.0254 C.3     1  UNL1        0.1150
      5 C         141.2632  138.8668  159.0356 C.3     1  UNL1        0.1165
      6 N         141.8701  140.2260  159.2200 N.am    1  UNL1       -0.2605
      7 C         141.2943  141.1737  160.2301 C.2     1  UNL1        0.3078
      8 O         141.9012  142.5330  160.4146 O.2     1  UNL1       -0.2522
      9 N         140.1116  140.7620  161.0558 N.am    1  UNL1       -0.2681
     10 C         143.0528  140.6377  158.3943 C.3     1  UNL1        0.1165
     11 C         143.6286  139.6901  157.3842 C.3     1  UNL1        0.1150
     12 H         139.7133  139.8699  160.9348 H       1  UNL1        0.1564
     13 C         139.5358  141.7097  162.0660 C.ar    1  UNL1        0.0525
     14 C         138.3381  142.5422  161.7160 C.ar    1  UNL1        0.0156
     15 C         137.7622  143.4898  162.7261 C.ar    1  UNL1        0.0135
     16 C         138.3842  143.6051  164.0862 C.ar    1  UNL1        0.0683
     17 CL        137.8083  144.5528  165.0964 Cl      1  UNL1       -0.0814
     18 C         139.5819  142.7726  164.4362 C.ar    1  UNL1        0.0694
     19 CL        140.2038  142.8879  165.7964 Cl      1  UNL1       -0.0813
     20 C         140.1577  141.8250  163.4261 C.ar    1  UNL1        0.0270
     21 N         142.9878  133.4743  156.5053 N.3     1  UNL1       -0.2681
     22 C         141.7770  133.3052  155.6362 C.3     1  UNL1        0.1047
     23 C         141.1730  134.4954  154.9516 C.3     1  UNL1        0.1600
     24 O         141.7799  135.8546  155.1360 O.3     1  UNL1       -0.3442
     25 C         142.9906  136.0238  156.0051 C.3     1  UNL1        0.2069
     26 C         143.5946  134.8336  156.6897 C.3     1  UNL1        0.1116
     27 C         144.9217  132.4065  157.8726 C.3     1  UNL1        0.0188
     28 C         143.5917  132.2841  157.1900 C.3     1  UNL1        0.0723
@<TRIPOS>BOND
     1    27    28    1
     2    28    21    1
     3    21    22    1
     4    22    23    1
     5    23    24    1
     6    24    25    1
     7    25     1    1
     8     1     2    2
     9     1     3   am
    10     3     4    1
    11     4     5    1
    12     5     6    1
    13     6     7   am
    14     7     8    2
    15     7     9   am
    16     9    13    1
    17    13    14   ar
    18    14    15   ar
    19    15    16   ar
    20    16    17    1
    21    16    18   ar
    22    18    19    1
    23    18    20   ar
    24     6    10    1
    25    10    11    1
    26    25    26    1
    27    26    21    1
    28    11     3    1
    29    20    13   ar
    30     9    12    1
@<TRIPOS>MOLECULE
*****
 28 30 0 0 0
SMALL
GASTEIGER

@<TRIPOS>ATOM
      1 C         143.3341  143.3298  162.4912 C.2     1  UNL1        0.2543
      2 O         144.2943  144.4755  162.3668 O.2     1  UNL1       -0.2722
      3 N         143.2507  142.2997  161.4040 N.am    1  UNL1       -0.2740
      4 C         142.2905  141.1540  161.5284 C.3     1  UNL1        0.1150
      5 C         142.2072  140.1239  160.4412 C.3     1  UNL1        0.1165
      6 N         143.0839  140.2395  159.2297 N.am    1  UNL1       -0.2605
      7 C         143.0005  139.2094  158.1425 C.2     1  UNL1        0.3078
      8 O         143.8772  139.3250  156.9309 O.2     1  UNL1       -0.2522
      9 N         142.0403  138.0637  158.2669 N.am    1  UNL1       -0.2681
     10 C         144.0441  141.3852  159.1052 C.3     1  UNL1        0.1165
     11 C         144.1275  142.4153  160.1924 C.3     1  UNL1        0.1150
     12 H         141.4649  137.9878  159.0621 H       1  UNL1        0.1564
     13 C         141.9569  137.0336  157.1797 C.ar    1  UNL1        0.0525
     14 C         140.8561  137.1035  156.1632 C.ar    1  UNL1        0.0156
     15 C         140.7727  136.0735  155.0760 C.ar    1  UNL1        0.0135
     16 C         141.7901  134.9735  155.0053 C.ar    1  UNL1        0.0683
     17 CL        141.7067  133.9434  153.9181 Cl      1  UNL1       -0.0814
     18 C         142.8909  134.9037  156.0218 C.ar    1  UNL1        0.0694
     19 CL        143.9083  133.8037  155.9511 Cl      1  UNL1       -0.0813
     20 C         142.9743  135.9337  157.1090 C.ar    1  UNL1        0.0270
     21 N         140.2933  143.8655  164.9845 N.3     1  UNL1       -0.2681
     22 C         140.7039  142.9831  166.1259 C.3     1  UNL1        0.1047
     23 C         141.9911  142.2163  166.0558 C.3     1  UNL1        0.1600
     24 O         142.8679  142.3318  164.8442 O.3     1  UNL1       -0.3442
     25 C         142.4574  143.2142  163.7028 C.3     1  UNL1        0.2069
     26 C         141.1701  143.9810  163.7730 C.3     1  UNL1        0.1116
     27 C         137.7862  144.1159  164.3511 C.3     1  UNL1        0.0188
     28 C         139.0061  144.6323  165.0547 C.3     1  UNL1        0.0723
@<TRIPOS>BOND
     1    27    28    1
     2    28    21    1
     3    21    22    1
     4    22    23    1
     5    23    24    1
     6    24    25    1
     7    25     1    1
     8     1     2    2
     9     1     3   am
    10     3     4    1
    11     4     5    1
    12     5     6    1
    13     6     7   am
    14     7     8    2
    15     7     9   am
    16     9    13    1
    17    13    14   ar
    18    14    15   ar
    19    15    16   ar
    20    16    17    1
    21    16    18   ar
    22    18    19    1
    23    18    20   ar
    24     6    10    1
    25    10    11    1
    26    25    26    1
    27    26    21    1
    28    11     3    1
    29    20    13   ar
    30     9    12    1
@<TRIPOS>MOLECULE
*****
 28 30 0 0 0
SMALL
GASTEIGER

@<TRIPOS>ATOM
      1 C         141.5514  140.7161  161.3456 C.2     1  UNL1        0.2543
      2 O         140.5681  139.5834  161.3299 O.2     1  UNL1       -0.2722
      3 N         142.5196  140.8845  160.2124 N.am    1  UNL1       -0.2740
      4 C         143.5029  142.0172  160.2281 C.3     1  UNL1        0.1150
      5 C         144.4711  142.1856  159.0948 C.3     1  UNL1        0.1165
      6 N         144.4560  141.2213  157.9459 N.am    1  UNL1       -0.2605
      7 C         145.4242  141.3898  156.8127 C.2     1  UNL1        0.3078
      8 O         145.4092  140.4255  155.6637 O.2     1  UNL1       -0.2522
      9 N         146.4075  142.5224  156.8284 N.am    1  UNL1       -0.2681
     10 C         143.4728  140.0887  157.9302 C.3     1  UNL1        0.1165
     11 C         142.5046  139.9203  159.0634 C.3     1  UNL1        0.1150
     12 H         146.4174  143.1553  157.5824 H       1  UNL1        0.1564
     13 C         147.3757  142.6908  155.6951 C.ar    1  UNL1        0.0525
     14 C         147.0769  143.6616  154.5913 C.ar    1  UNL1        0.0156
     15 C         148.0451  143.8300  153.4581 C.ar    1  UNL1        0.0135
     16 C         149.3120  143.0277  153.4286 C.ar    1  UNL1        0.0683
     17 CL        150.2803  143.1960  152.2953 Cl      1  UNL1       -0.0814
     18 C         149.6109  142.0569  154.5324 C.ar    1  UNL1        0.0694
     19 CL        150.8779  141.2544  154.5028 Cl      1  UNL1       -0.0813
     20 C         148.6427  141.8884  155.6656 C.ar    1  UNL1        0.0270
     21 N         140.5030  143.6798  163.7679 N.3     1  UNL1       -0.2681
     22 C         141.5964  143.6089  164.7923 C.3     1  UNL1        0.1047
     23 C         142.6748  142.5737  164.6678 C.3     1  UNL1        0.1600
     24 O         142.6599  141.6095  163.5189 O.3     1  UNL1       -0.3442
     25 C         141.5665  141.6804  162.4945 C.3     1  UNL1        0.2069
     26 C         140.4880  142.7155  162.6190 C.3     1  UNL1        0.1116
     27 C         138.5927  144.7852  165.1385 C.3     1  UNL1        0.0188
     28 C         139.4246  144.7149  163.8924 C.3     1  UNL1        0.0723
@<TRIPOS>BOND
     1    27    28    1
     2    28    21    1
     3    21    22    1
     4    22    23    1
     5    23    24    1
     6    24    25    1
     7    25     1    1
     8     1     2    2
     9     1     3   am
    10     3     4    1
    11     4     5    1
    12     5     6    1
    13     6     7   am
    14     7     8    2
    15     7     9   am
    16     9    13    1
    17    13    14   ar
    18    14    15   ar
    19    15    16   ar
    20    16    17    1
    21    16    18   ar
    22    18    19    1
    23    18    20   ar
    24     6    10    1
    25    10    11    1
    26    25    26    1
    27    26    21    1
    28    11     3    1
    29    20    13   ar
    30     9    12    1
@<TRIPOS>MOLECULE
*****
 28 30 0 0 0
SMALL
GASTEIGER

@<TRIPOS>ATOM
      1 C         139.6466  143.6358  164.3654 C.2     1  UNL1        0.2543
      2 O         138.6775  144.7736  164.4928 O.2     1  UNL1       -0.2722
      3 N         140.5174  143.5250  163.1491 N.am    1  UNL1       -0.2740
      4 C         141.4866  142.3872  163.0217 C.3     1  UNL1        0.1150
      5 C         142.3574  142.2764  161.8054 C.3     1  UNL1        0.1165
      6 N         142.2590  143.3033  160.7165 N.am    1  UNL1       -0.2605
      7 C         143.1298  143.1925  159.5002 C.2     1  UNL1        0.3078
      8 O         143.0315  144.2194  158.4112 O.2     1  UNL1       -0.2522
      9 N         144.0990  142.0547  159.3728 N.am    1  UNL1       -0.2681
     10 C         141.2899  144.4411  160.8438 C.3     1  UNL1        0.1165
     11 C         140.4191  144.5519  162.0601 C.3     1  UNL1        0.1150
     12 H         144.1636  141.3807  160.0875 H       1  UNL1        0.1564
     13 C         144.9699  141.9439  158.1564 C.ar    1  UNL1        0.0525
     14 C         146.2225  142.7627  158.0538 C.ar    1  UNL1        0.0156
     15 C         147.0933  142.6519  156.8375 C.ar    1  UNL1        0.0135
     16 C         146.7115  141.7224  155.7239 C.ar    1  UNL1        0.0683
     17 CL        147.5823  141.6116  154.5075 Cl      1  UNL1       -0.0814
     18 C         145.4588  140.9037  155.8266 C.ar    1  UNL1        0.0694
     19 CL        145.0770  139.9741  154.7129 Cl      1  UNL1       -0.0813
     20 C         144.5880  141.0144  157.0428 C.ar    1  UNL1        0.0270
     21 N         139.0752  140.2981  166.4350 N.3     1  UNL1       -0.2681
     22 C         139.9416  140.5551  167.6322 C.3     1  UNL1        0.1047
     23 C         140.7098  141.8389  167.7404 C.3     1  UNL1        0.1600
     24 O         140.6114  142.8658  166.6515 O.3     1  UNL1       -0.3442
     25 C         139.7450  142.6089  165.4544 C.3     1  UNL1        0.2069
     26 C         138.9769  141.3250  165.3461 C.3     1  UNL1        0.1116
     27 C         138.7209  137.9746  165.3279 C.3     1  UNL1        0.0188
     28 C         138.3070  139.0143  166.3268 C.3     1  UNL1        0.0723
@<TRIPOS>BOND
     1    27    28    1
     2    28    21    1
     3    21    22    1
     4    22    23    1
     5    23    24    1
     6    24    25    1
     7    25     1    1
     8     1     2    2
     9     1     3   am
    10     3     4    1
    11     4     5    1
    12     5     6    1
    13     6     7   am
    14     7     8    2
    15     7     9   am
    16     9    13    1
    17    13    14   ar
    18    14    15   ar
    19    15    16   ar
    20    16    17    1
    21    16    18   ar
    22    18    19    1
    23    18    20   ar
    24     6    10    1
    25    10    11    1
    26    25    26    1
    27    26    21    1
    28    11     3    1
    29    20    13   ar
    30     9    12    1
@<TRIPOS>MOLECULE
*****
 28 30 0 0 0
SMALL
GASTEIGER

@<TRIPOS>ATOM
      1 C         139.4136  143.6516  163.9493 C.2     1  UNL1        0.2543
      2 O         138.3471  144.7058  163.9859 O.2     1  UNL1       -0.2722
      3 N         140.3465  143.5688  162.7777 N.am    1  UNL1       -0.2740
      4 C         141.4129  142.5146  162.7411 C.3     1  UNL1        0.1150
      5 C         142.3459  142.4319  161.5694 C.3     1  UNL1        0.1165
      6 N         142.2124  143.4033  160.4344 N.am    1  UNL1       -0.2605
      7 C         143.1453  143.3206  159.2628 C.2     1  UNL1        0.3078
      8 O         143.0118  144.2921  158.1276 O.2     1  UNL1       -0.2522
      9 N         144.2117  142.2663  159.2262 N.am    1  UNL1       -0.2681
     10 C         141.1459  144.4576  160.4709 C.3     1  UNL1        0.1165
     11 C         140.2130  144.5403  161.6426 C.3     1  UNL1        0.1150
     12 H         144.2993  141.6287  159.9712 H       1  UNL1        0.1564
     13 C         145.1447  142.1836  158.0545 C.ar    1  UNL1        0.0525
     14 C         146.4696  142.8855  158.0997 C.ar    1  UNL1        0.0156
     15 C         147.4025  142.8028  156.9281 C.ar    1  UNL1        0.0135
     16 C         147.0106  142.0182  155.7112 C.ar    1  UNL1        0.0683
     17 CL        147.9435  141.9355  154.5395 Cl      1  UNL1       -0.0814
     18 C         145.6857  141.3163  155.6660 C.ar    1  UNL1        0.0694
     19 CL        145.2938  140.5317  154.4491 Cl      1  UNL1       -0.0813
     20 C         144.7527  141.3990  156.8376 C.ar    1  UNL1        0.0270
     21 N         140.3686  142.1247  167.4858 N.3     1  UNL1       -0.2681
     22 C         139.8140  140.7372  167.3546 C.3     1  UNL1        0.1047
     23 C         139.1258  140.3212  166.0884 C.3     1  UNL1        0.1600
     24 O         138.9923  141.2926  164.9533 O.3     1  UNL1       -0.3442
     25 C         139.5470  142.6801  165.0845 C.3     1  UNL1        0.2069
     26 C         140.2352  143.0961  166.3507 C.3     1  UNL1        0.1116
     27 C         140.4832  143.6452  169.5893 C.3     1  UNL1        0.0188
     28 C         141.0568  142.5407  168.7520 C.3     1  UNL1        0.0723
@<TRIPOS>BOND
     1    27    28    1
     2    28    21    1
     3    21    22    1
     4    22    23    1
     5    23    24    1
     6    24    25    1
     7    25     1    1
     8     1     2    2
     9     1     3   am
    10     3     4    1
    11     4     5    1
    12     5     6    1
    13     6     7   am
    14     7     8    2
    15     7     9   am
    16     9    13    1
    17    13    14   ar
    18    14    15   ar
    19    15    16   ar
    20    16    17    1
    21    16    18   ar
    22    18    19    1
    23    18    20   ar
    24     6    10    1
    25    10    11    1
    26    25    26    1
    27    26    21    1
    28    11     3    1
    29    20    13   ar
    30     9    12    1
@<TRIPOS>MOLECULE
*****
 28 30 0 0 0
SMALL
GASTEIGER

@<TRIPOS>ATOM
      1 C         138.3628  140.9770  158.7176 C.2     1  UNL1        0.2543
      2 O         137.2279  140.2297  158.0823 O.2     1  UNL1       -0.2722
      3 N         138.5493  140.9344  160.2053 N.am    1  UNL1       -0.2740
      4 C         139.6842  141.6817  160.8405 C.3     1  UNL1        0.1150
      5 C         139.8708  141.6390  162.3283 C.3     1  UNL1        0.1165
      6 N         138.9224  140.8492  163.1808 N.am    1  UNL1       -0.2605
      7 C         139.1090  140.8066  164.6685 C.2     1  UNL1        0.3078
      8 O         138.1606  140.0167  165.5210 O.2     1  UNL1       -0.2522
      9 N         140.2439  141.5539  165.3038 N.am    1  UNL1       -0.2681
     10 C         137.7875  140.1019  162.5455 C.3     1  UNL1        0.1165
     11 C         137.6009  140.1445  161.0578 C.3     1  UNL1        0.1150
     12 H         140.8663  142.0723  164.7443 H       1  UNL1        0.1564
     13 C         140.4304  141.5113  166.7916 C.ar    1  UNL1        0.0525
     14 C         140.6847  140.2022  167.4783 C.ar    1  UNL1        0.0156
     15 C         140.8713  140.1595  168.9660 C.ar    1  UNL1        0.0135
     16 C         140.8035  141.4259  169.7670 C.ar    1  UNL1        0.0683
     17 CL        140.9900  141.3833  171.2548 Cl      1  UNL1       -0.0814
     18 C         140.5492  142.7350  169.0802 C.ar    1  UNL1        0.0694
     19 CL        140.4814  144.0015  169.8813 Cl      1  UNL1       -0.0813
     20 C         140.3626  142.7777  167.5925 C.ar    1  UNL1        0.0270
     21 N         139.8475  143.8950  156.4747 N.3     1  UNL1       -0.2681
     22 C         141.2077  143.3466  156.1600 C.3     1  UNL1        0.1047
     23 C         141.6196  142.0083  156.6979 C.3     1  UNL1        0.1600
     24 O         140.6713  141.2185  157.5504 O.3     1  UNL1       -0.3442
     25 C         139.3111  141.7669  157.8650 C.3     1  UNL1        0.2069
     26 C         138.8992  143.1051  157.3271 C.3     1  UNL1        0.1116
     27 C         140.0675  146.4838  156.4724 C.3     1  UNL1        0.0188
     28 C         139.4356  145.2333  155.9368 C.3     1  UNL1        0.0723
@<TRIPOS>BOND
     1    27    28    1
     2    28    21    1
     3    21    22    1
     4    22    23    1
     5    23    24    1
     6    24    25    1
     7    25     1    1
     8     1     2    2
     9     1     3   am
    10     3     4    1
    11     4     5    1
    12     5     6    1
    13     6     7   am
    14     7     8    2
    15     7     9   am
    16     9    13    1
    17    13    14   ar
    18    14    15   ar
    19    15    16   ar
    20    16    17    1
    21    16    18   ar
    22    18    19    1
    23    18    20   ar
    24     6    10    1
    25    10    11    1
    26    25    26    1
    27    26    21    1
    28    11     3    1
    29    20    13   ar
    30     9    12    1
@<TRIPOS>MOLECULE
*****
 28 30 0 0 0
SMALL
GASTEIGER

@<TRIPOS>ATOM
      1 C         140.5546  138.5392  158.5849 C.2     1  UNL1        0.2543
      2 O         139.3612  137.8720  157.9680 O.2     1  UNL1       -0.2722
      3 N         140.5717  138.8351  160.0553 N.am    1  UNL1       -0.2740
      4 C         141.7652  139.5023  160.6722 C.3     1  UNL1        0.1150
      5 C         141.7823  139.7982  162.1427 C.3     1  UNL1        0.1165
      6 N         140.6059  139.4270  162.9961 N.am    1  UNL1       -0.2605
      7 C         140.6231  139.7230  164.4665 C.2     1  UNL1        0.3078
      8 O         139.4467  139.3518  165.3200 O.2     1  UNL1       -0.2522
      9 N         141.8165  140.3901  165.0834 N.am    1  UNL1       -0.2681
     10 C         139.4125  138.7599  162.3792 C.3     1  UNL1        0.1165
     11 C         139.3954  138.4639  160.9088 C.3     1  UNL1        0.1150
     12 H         142.5886  140.6337  164.5233 H       1  UNL1        0.1564
     13 C         141.8336  140.6861  166.5539 C.ar    1  UNL1        0.0525
     14 C         142.5648  139.7742  167.4940 C.ar    1  UNL1        0.0156
     15 C         142.5820  140.0701  168.9644 C.ar    1  UNL1        0.0135
     16 C         141.8678  141.2778  169.4947 C.ar    1  UNL1        0.0683
     17 CL        141.8849  141.5738  170.9652 Cl      1  UNL1       -0.0814
     18 C         141.1365  142.1897  168.5546 C.ar    1  UNL1        0.0694
     19 CL        140.4223  143.3975  169.0850 Cl      1  UNL1       -0.0813
     20 C         141.1194  141.8938  167.0842 C.ar    1  UNL1        0.0270
     21 N         143.7131  138.2103  156.2046 N.3     1  UNL1       -0.2681
     22 C         144.0836  139.6526  156.0243 C.3     1  UNL1        0.1047
     23 C         143.2777  140.7238  156.6976 C.3     1  UNL1        0.1600
     24 O         142.1014  140.3526  157.5511 O.3     1  UNL1       -0.3442
     25 C         141.7310  138.9104  157.7314 C.3     1  UNL1        0.2069
     26 C         142.5368  137.8392  157.0581 C.3     1  UNL1        0.1116
     27 C         143.9642  135.7514  155.4044 C.3     1  UNL1        0.0188
     28 C         144.5190  137.1392  155.5314 C.3     1  UNL1        0.0723
@<TRIPOS>BOND
     1    27    28    1
     2    28    21    1
     3    21    22    1
     4    22    23    1
     5    23    24    1
     6    24    25    1
     7    25     1    1
     8     1     2    2
     9     1     3   am
    10     3     4    1
    11     4     5    1
    12     5     6    1
    13     6     7   am
    14     7     8    2
    15     7     9   am
    16     9    13    1
    17    13    14   ar
    18    14    15   ar
    19    15    16   ar
    20    16    17    1
    21    16    18   ar
    22    18    19    1
    23    18    20   ar
    24     6    10    1
    25    10    11    1
    26    25    26    1
    27    26    21    1
    28    11     3    1
    29    20    13   ar
    30     9    12    1
@<TRIPOS>MOLECULE
*****
 28 30 0 0 0
SMALL
GASTEIGER

@<TRIPOS>ATOM
      1 C         139.7830  139.1104  157.1148 C.2     1  UNL1        0.2543
      2 O         138.8365  139.6863  156.1036 O.2     1  UNL1       -0.2722
      3 N         139.5321  139.3160  158.5793 N.am    1  UNL1       -0.2740
      4 C         140.4785  138.7401  159.5905 C.3     1  UNL1        0.1150
      5 C         140.2275  138.9456  161.0550 C.3     1  UNL1        0.1165
      6 N         139.0301  139.7270  161.5083 N.am    1  UNL1       -0.2605
      7 C         138.7792  139.9326  162.9728 C.2     1  UNL1        0.3078
      8 O         137.5817  140.7140  163.4261 O.2     1  UNL1       -0.2522
      9 N         139.7256  139.3567  163.9840 N.am    1  UNL1       -0.2681
     10 C         138.0836  140.3029  160.4971 C.3     1  UNL1        0.1165
     11 C         138.3346  140.0974  159.0326 C.3     1  UNL1        0.1150
     12 H         140.5116  138.8438  163.6865 H       1  UNL1        0.1564
     13 C         139.4746  139.5622  165.4485 C.ar    1  UNL1        0.0525
     14 C         138.3765  138.8052  166.1347 C.ar    1  UNL1        0.0156
     15 C         138.1254  139.0107  167.5992 C.ar    1  UNL1        0.0135
     16 C         138.9726  139.9733  168.3774 C.ar    1  UNL1        0.0683
     17 CL        138.7215  140.1788  169.8420 Cl      1  UNL1       -0.0814
     18 C         140.0707  140.7303  167.6912 C.ar    1  UNL1        0.0694
     19 CL        140.9179  141.6930  168.4696 Cl      1  UNL1       -0.0813
     20 C         140.3218  140.5248  166.2268 C.ar    1  UNL1        0.0270
     21 N         142.0736  136.0647  156.0072 N.3     1  UNL1       -0.2681
     22 C         143.3753  136.7661  155.7548 C.3     1  UNL1        0.1047
     23 C         143.4795  138.2489  155.9558 C.3     1  UNL1        0.1600
     24 O         142.2822  139.0304  156.4091 O.3     1  UNL1       -0.3442
     25 C         140.9805  138.3290  156.6615 C.3     1  UNL1        0.2069
     26 C         140.8763  136.8462  156.4605 C.3     1  UNL1        0.1116
     27 C         142.9770  133.6669  156.4368 C.3     1  UNL1        0.0188
     28 C         141.9694  134.5819  155.8063 C.3     1  UNL1        0.0723
@<TRIPOS>BOND
     1    27    28    1
     2    28    21    1
     3    21    22    1
     4    22    23    1
     5    23    24    1
     6    24    25    1
     7    25     1    1
     8     1     2    2
     9     1     3   am
    10     3     4    1
    11     4     5    1
    12     5     6    1
    13     6     7   am
    14     7     8    2
    15     7     9   am
    16     9    13    1
    17    13    14   ar
    18    14    15   ar
    19    15    16   ar
    20    16    17    1
    21    16    18   ar
    22    18    19    1
    23    18    20   ar
    24     6    10    1
    25    10    11    1
    26    25    26    1
    27    26    21    1
    28    11     3    1
    29    20    13   ar
    30     9    12    1
