@<TRIPOS>MOLECULE
*****
 41 45 0 0 0
SMALL
GASTEIGER

@<TRIPOS>ATOM
      1 C         140.9407  144.6000  157.5039 C.3     1  UNL1        0.1103
      2 C         140.6203  145.7668  156.6174 C.3     1  UNL1        0.0828
      3 N         140.9904  145.7286  155.1643 N.3     1  UNL1       -0.2734
      4 C         141.6808  144.5235  154.5976 C.3     1  UNL1        0.0738
      5 C         142.0012  143.3567  155.4841 C.3     1  UNL1        0.0374
      6 C         141.6311  143.3949  156.9372 C.3     1  UNL1        0.0832
      7 C         140.6700  146.8955  154.2778 C.3     1  UNL1        0.0575
      8 C         139.8165  148.0164  154.7927 C.3     1  UNL1        0.0160
      9 C         139.4961  149.1832  153.9062 C.3     1  UNL1        0.0014
     10 C         140.0293  149.2292  152.5049 C.3     1  UNL1        0.0001
     11 C         140.8828  148.1083  151.9901 C.3     1  UNL1        0.0014
     12 C         141.2032  146.9414  152.8766 C.3     1  UNL1        0.0160
     13 N         141.4645  145.3336  159.9406 N.am    1  UNL1       -0.3007
     14 C         140.5707  144.6381  158.9570 C.2     1  UNL1        0.2252
     15 O         139.3068  143.9808  159.4266 O.2     1  UNL1       -0.2750
     16 H         142.2940  145.7650  159.6323 H       1  UNL1        0.1497
     17 C         139.9231  146.1912  161.8481 C.3     1  UNL1        0.0278
     18 C         141.0944  145.3718  161.3937 C.3     1  UNL1        0.1119
     19 C         141.8958  144.5905  162.3925 C.ar    1  UNL1        0.0768
     20 C         141.1984  143.7811  163.4453 C.ar    1  UNL1        0.0164
     21 C         141.9997  142.9998  164.4440 C.ar    1  UNL1        0.0029
     22 C         143.4984  143.0280  164.3900 C.ar    1  UNL1        0.0207
     23 C         144.1959  143.8374  163.3371 C.ar    1  UNL1        0.0985
     24 N         143.3946  144.6187  162.3384 N.ar    1  UNL1       -0.2465
     25 N         141.9515  142.2280  157.8237 N.am    1  UNL1       -0.3006
     26 C         143.0997  142.3098  158.7854 C.2     1  UNL1        0.2669
     27 O         143.9275  143.5584  158.8606 O.2     1  UNL1       -0.2684
     28 H         141.4081  141.4085  157.7743 H       1  UNL1        0.1497
     29 C         143.4201  141.1430  159.6719 C.ar    1  UNL1        0.1761
     30 C         143.2518  141.0952  161.1616 C.ar    1  UNL1        0.0673
     31 C         143.6927  139.7418  161.6347 C.ar    1  UNL1        0.1792
     32 O         144.1335  138.9531  160.4374 O.2     1  UNL1       -0.3532
     33 N         143.9650  139.8191  159.2243 N.ar    1  UNL1       -0.0723
     34 C         143.6928  139.2614  163.0558 C.ar    1  UNL1        0.0648
     35 C         144.8857  139.5083  163.9309 C.ar    1  UNL1        0.0077
     36 C         144.8859  139.0280  165.3519 C.ar    1  UNL1        0.0299
     37 C         143.6930  138.3006  165.8978 C.ar    1  UNL1        0.1424
     38 F         143.6931  137.8202  167.3188 F       1  UNL1       -0.2041
     39 C         142.5000  138.0537  165.0227 C.ar    1  UNL1        0.0593
     40 C         142.4999  138.5341  163.6016 C.ar    1  UNL1        0.1453
     41 F         141.3069  138.2871  162.7265 F       1  UNL1       -0.2040
@<TRIPOS>BOND
     1    18    17    1
     2    18    13    1
     3    13    14   am
     4    14    15    2
     5     1    14    1
     6     1     2    1
     7     2     3    1
     8     3     7    1
     9     7     8    1
    10     8     9    1
    11     9    10    1
    12    10    11    1
    13    11    12    1
    14     3     4    1
    15     4     5    1
    16     5     6    1
    17     6    25    1
    18    25    26   am
    19    26    27    2
    20    26    29    1
    21    29    30   ar
    22    30    31   ar
    23    31    34    1
    24    34    35   ar
    25    35    36   ar
    26    36    37   ar
    27    37    38    1
    28    37    39   ar
    29    39    40   ar
    30    40    41    1
    31    31    32   ar
    32    32    33   ar
    33    18    19    1
    34    19    20   ar
    35    20    21   ar
    36    21    22   ar
    37    22    23   ar
    38    23    24   ar
    39     6     1    1
    40    33    29   ar
    41    24    19   ar
    42    12     7    1
    43    40    34   ar
    44    13    16    1
    45    25    28    1
@<TRIPOS>MOLECULE
*****
 41 45 0 0 0
SMALL
GASTEIGER

@<TRIPOS>ATOM
      1 C         144.1888  139.8426  156.1130 C.3     1  UNL1        0.1103
      2 C         145.4224  140.1630  155.3222 C.3     1  UNL1        0.0828
      3 N         146.3198  141.2846  155.7540 N.3     1  UNL1       -0.2734
      4 C         145.9836  142.0859  156.9767 C.3     1  UNL1        0.0738
      5 C         144.7500  141.7655  157.7676 C.3     1  UNL1        0.0374
      6 C         143.8526  140.6439  157.3357 C.3     1  UNL1        0.0832
      7 C         147.5535  141.6051  154.9631 C.3     1  UNL1        0.0575
      8 C         148.8915  141.6365  155.6405 C.3     1  UNL1        0.0160
      9 C         150.1251  141.9569  154.8497 C.3     1  UNL1        0.0014
     10 C         150.0209  142.2459  153.3815 C.3     1  UNL1        0.0001
     11 C         148.6829  142.2145  152.7041 C.3     1  UNL1        0.0014
     12 C         147.4492  141.8940  153.4950 C.3     1  UNL1        0.0160
     13 N         143.8733  137.5064  155.0209 N.am    1  UNL1       -0.3007
     14 C         143.2913  138.7210  155.6812 C.2     1  UNL1        0.2252
     15 O         141.8117  138.8139  155.9098 O.2     1  UNL1       -0.2750
     16 H         144.8444  137.4455  154.8709 H       1  UNL1        0.1497
     17 C         142.0900  136.5521  153.3902 C.3     1  UNL1        0.0278
     18 C         142.9758  136.3848  154.5891 C.3     1  UNL1        0.1119
     19 C         142.9642  135.0958  155.3562 C.ar    1  UNL1        0.0768
     20 C         142.2021  133.9162  154.8291 C.ar    1  UNL1        0.0164
     21 C         142.1905  132.6273  155.5962 C.ar    1  UNL1        0.0029
     22 C         142.9409  132.5179  156.8904 C.ar    1  UNL1        0.0207
     23 C         143.7030  133.6975  157.4175 C.ar    1  UNL1        0.0985
     24 N         143.7146  134.9865  156.6504 N.ar    1  UNL1       -0.2465
     25 N         142.6189  140.3235  158.1266 N.am    1  UNL1       -0.3006
     26 C         142.7099  139.4330  159.3303 C.2     1  UNL1        0.2669
     27 O         144.0346  138.8630  159.7431 O.2     1  UNL1       -0.2684
     28 H         141.7495  140.6976  157.8557 H       1  UNL1        0.1497
     29 C         141.4763  139.1126  160.1211 C.ar    1  UNL1        0.1761
     30 C         141.3111  139.2782  161.6028 C.ar    1  UNL1        0.0673
     31 C         139.9240  138.8383  161.9666 C.ar    1  UNL1        0.1792
     32 O         139.2319  138.4007  160.7098 O.2     1  UNL1       -0.3532
     33 N         140.1913  138.5702  159.5693 N.ar    1  UNL1       -0.0723
     34 C         139.3328  138.8362  163.3452 C.ar    1  UNL1        0.0648
     35 C         139.2294  137.5530  164.1150 C.ar    1  UNL1        0.0077
     36 C         138.6382  137.5509  165.4936 C.ar    1  UNL1        0.0299
     37 C         138.1504  138.8321  166.1024 C.ar    1  UNL1        0.1424
     38 F         137.5592  138.8301  167.4810 F       1  UNL1       -0.2041
     39 C         138.2538  140.1154  165.3326 C.ar    1  UNL1        0.0593
     40 C         138.8451  140.1174  163.9540 C.ar    1  UNL1        0.1453
     41 F         138.9485  141.4006  163.1842 F       1  UNL1       -0.2040
@<TRIPOS>BOND
     1    18    17    1
     2    18    13    1
     3    13    14   am
     4    14    15    2
     5     1    14    1
     6     1     2    1
     7     2     3    1
     8     3     7    1
     9     7     8    1
    10     8     9    1
    11     9    10    1
    12    10    11    1
    13    11    12    1
    14     3     4    1
    15     4     5    1
    16     5     6    1
    17     6    25    1
    18    25    26   am
    19    26    27    2
    20    26    29    1
    21    29    30   ar
    22    30    31   ar
    23    31    34    1
    24    34    35   ar
    25    35    36   ar
    26    36    37   ar
    27    37    38    1
    28    37    39   ar
    29    39    40   ar
    30    40    41    1
    31    31    32   ar
    32    32    33   ar
    33    18    19    1
    34    19    20   ar
    35    20    21   ar
    36    21    22   ar
    37    22    23   ar
    38    23    24   ar
    39     6     1    1
    40    33    29   ar
    41    24    19   ar
    42    12     7    1
    43    40    34   ar
    44    13    16    1
    45    25    28    1
@<TRIPOS>MOLECULE
*****
 41 45 0 0 0
SMALL
GASTEIGER

@<TRIPOS>ATOM
      1 C         142.2852  139.8678  159.8921 C.3     1  UNL1        0.1103
      2 C         142.3293  139.1390  158.5818 C.3     1  UNL1        0.0828
      3 N         142.8407  137.7300  158.5242 N.3     1  UNL1       -0.2734
      4 C         143.3080  137.0499  159.7768 C.3     1  UNL1        0.0738
      5 C         143.2639  137.7787  161.0870 C.3     1  UNL1        0.0374
      6 C         142.7525  139.1876  161.1447 C.3     1  UNL1        0.0832
      7 C         142.8848  137.0012  157.2138 C.3     1  UNL1        0.0575
      8 C         142.6917  137.7532  155.9304 C.3     1  UNL1        0.0160
      9 C         142.7358  137.0244  154.6202 C.3     1  UNL1        0.0014
     10 C         142.9730  135.5435  154.5932 C.3     1  UNL1        0.0001
     11 C         143.1661  134.7914  155.8766 C.3     1  UNL1        0.0014
     12 C         143.1220  135.5203  157.1870 C.3     1  UNL1        0.0160
     13 N         140.3181  141.5366  160.2013 N.am    1  UNL1       -0.3007
     14 C         141.7738  141.2768  159.9498 C.2     1  UNL1        0.2252
     15 O         142.7183  142.4259  159.7560 O.2     1  UNL1       -0.2750
     16 H         139.6983  140.7823  160.3285 H       1  UNL1        0.1497
     17 C         139.5986  143.7204  158.9916 C.3     1  UNL1        0.0278
     18 C         139.8067  142.9456  160.2590 C.3     1  UNL1        0.1119
     19 C         139.5035  143.5797  161.5841 C.ar    1  UNL1        0.0768
     20 C         140.6236  144.0386  162.4698 C.ar    1  UNL1        0.0164
     21 C         140.3204  144.6727  163.7950 C.ar    1  UNL1        0.0029
     22 C         138.8969  144.8479  164.2344 C.ar    1  UNL1        0.0207
     23 C         137.7767  144.3889  163.3486 C.ar    1  UNL1        0.0985
     24 N         138.0799  143.7548  162.0235 N.ar    1  UNL1       -0.2465
     25 N         142.7084  139.9165  162.4550 N.am    1  UNL1       -0.3006
     26 C         143.8419  140.8153  162.8518 C.2     1  UNL1        0.2669
     27 O         145.0194  140.9853  161.9382 O.2     1  UNL1       -0.2684
     28 H         141.9356  139.8049  163.0546 H       1  UNL1        0.1497
     29 C         143.7978  141.5442  164.1620 C.ar    1  UNL1        0.1761
     30 C         142.8888  141.2330  165.3138 C.ar    1  UNL1        0.0673
     31 C         143.1842  142.2087  166.4142 C.ar    1  UNL1        0.1792
     32 O         144.2759  143.1229  165.9424 O.2     1  UNL1       -0.3532
     33 N         144.6551  142.7122  164.5505 N.ar    1  UNL1       -0.0723
     34 C         142.5068  142.2610  167.7516 C.ar    1  UNL1        0.0648
     35 C         143.3095  142.0835  169.0063 C.ar    1  UNL1        0.0077
     36 C         142.6322  142.1358  170.3436 C.ar    1  UNL1        0.0299
     37 C         141.1522  142.3657  170.4263 C.ar    1  UNL1        0.1424
     38 F         140.4748  142.4180  171.7636 F       1  UNL1       -0.2041
     39 C         140.3496  142.5432  169.1716 C.ar    1  UNL1        0.0593
     40 C         141.0269  142.4909  167.8342 C.ar    1  UNL1        0.1453
     41 F         140.2243  142.6685  166.5795 F       1  UNL1       -0.2040
@<TRIPOS>BOND
     1    18    17    1
     2    18    13    1
     3    13    14   am
     4    14    15    2
     5     1    14    1
     6     1     2    1
     7     2     3    1
     8     3     7    1
     9     7     8    1
    10     8     9    1
    11     9    10    1
    12    10    11    1
    13    11    12    1
    14     3     4    1
    15     4     5    1
    16     5     6    1
    17     6    25    1
    18    25    26   am
    19    26    27    2
    20    26    29    1
    21    29    30   ar
    22    30    31   ar
    23    31    34    1
    24    34    35   ar
    25    35    36   ar
    26    36    37   ar
    27    37    38    1
    28    37    39   ar
    29    39    40   ar
    30    40    41    1
    31    31    32   ar
    32    32    33   ar
    33    18    19    1
    34    19    20   ar
    35    20    21   ar
    36    21    22   ar
    37    22    23   ar
    38    23    24   ar
    39     6     1    1
    40    33    29   ar
    41    24    19   ar
    42    12     7    1
    43    40    34   ar
    44    13    16    1
    45    25    28    1
@<TRIPOS>MOLECULE
*****
 41 45 0 0 0
SMALL
GASTEIGER

@<TRIPOS>ATOM
      1 C         141.2980  142.9262  160.2350 C.3     1  UNL1        0.1103
      2 C         141.1280  143.3126  158.7956 C.3     1  UNL1        0.0828
      3 N         140.7989  144.7306  158.4336 N.3     1  UNL1       -0.2734
      4 C         140.6398  145.7621  159.5110 C.3     1  UNL1        0.0738
      5 C         140.8098  145.3757  160.9503 C.3     1  UNL1        0.0374
      6 C         141.1389  143.9577  161.3123 C.3     1  UNL1        0.0832
      7 C         140.6289  145.1171  156.9942 C.3     1  UNL1        0.0575
      8 C         141.2009  144.2499  155.9122 C.3     1  UNL1        0.0160
      9 C         141.0310  144.6363  154.4729 C.3     1  UNL1        0.0014
     10 C         140.2889  145.8900  154.1155 C.3     1  UNL1        0.0001
     11 C         139.7169  146.7572  155.1975 C.3     1  UNL1        0.0014
     12 C         139.8869  146.3707  156.6369 C.3     1  UNL1        0.0160
     13 N         143.0255  141.1414  160.9968 N.am    1  UNL1       -0.3007
     14 C         141.6271  141.5082  160.5970 C.2     1  UNL1        0.2252
     15 O         140.5577  140.4570  160.5593 O.2     1  UNL1       -0.2750
     16 H         143.7273  141.8313  161.0215 H       1  UNL1        0.1497
     17 C         143.8835  138.7860  160.3141 C.3     1  UNL1        0.0278
     18 C         143.3546  139.7234  161.3588 C.3     1  UNL1        0.1119
     19 C         143.1547  139.2428  162.7657 C.ar    1  UNL1        0.0768
     20 C         144.0717  139.7122  163.8559 C.ar    1  UNL1        0.0164
     21 C         143.8718  139.2316  165.2628 C.ar    1  UNL1        0.0029
     22 C         142.7549  138.2817  165.5793 C.ar    1  UNL1        0.0207
     23 C         141.8378  137.8123  164.4890 C.ar    1  UNL1        0.0985
     24 N         142.0377  138.2929  163.0821 N.ar    1  UNL1       -0.2465
     25 N         141.3089  143.5712  162.7517 N.am    1  UNL1       -0.3006
     26 C         142.6813  143.5057  163.3536 C.2     1  UNL1        0.2669
     27 O         143.8837  143.8268  162.5161 O.2     1  UNL1       -0.2684
     28 H         140.5198  143.3605  163.3013 H       1  UNL1        0.1497
     29 C         142.8513  143.1193  164.7929 C.ar    1  UNL1        0.1761
     30 C         141.8481  142.3865  165.6335 C.ar    1  UNL1        0.0673
     31 C         142.4312  142.2120  167.0045 C.ar    1  UNL1        0.1792
     32 O         143.7948  142.8370  167.0112 O.2     1  UNL1       -0.3532
     33 N         144.0545  143.3977  165.6444 N.ar    1  UNL1       -0.0723
     34 C         141.7672  141.5320  168.1650 C.ar    1  UNL1        0.0648
     35 C         142.2607  140.1952  168.6334 C.ar    1  UNL1        0.0077
     36 C         141.5968  139.5151  169.7939 C.ar    1  UNL1        0.0299
     37 C         140.4393  140.1720  170.4860 C.ar    1  UNL1        0.1424
     38 F         139.7754  139.4919  171.6465 F       1  UNL1       -0.2041
     39 C         139.9459  141.5088  170.0176 C.ar    1  UNL1        0.0593
     40 C         140.6099  142.1888  168.8571 C.ar    1  UNL1        0.1453
     41 F         140.1164  143.5256  168.3887 F       1  UNL1       -0.2040
@<TRIPOS>BOND
     1    18    17    1
     2    18    13    1
     3    13    14   am
     4    14    15    2
     5     1    14    1
     6     1     2    1
     7     2     3    1
     8     3     7    1
     9     7     8    1
    10     8     9    1
    11     9    10    1
    12    10    11    1
    13    11    12    1
    14     3     4    1
    15     4     5    1
    16     5     6    1
    17     6    25    1
    18    25    26   am
    19    26    27    2
    20    26    29    1
    21    29    30   ar
    22    30    31   ar
    23    31    34    1
    24    34    35   ar
    25    35    36   ar
    26    36    37   ar
    27    37    38    1
    28    37    39   ar
    29    39    40   ar
    30    40    41    1
    31    31    32   ar
    32    32    33   ar
    33    18    19    1
    34    19    20   ar
    35    20    21   ar
    36    21    22   ar
    37    22    23   ar
    38    23    24   ar
    39     6     1    1
    40    33    29   ar
    41    24    19   ar
    42    12     7    1
    43    40    34   ar
    44    13    16    1
    45    25    28    1
@<TRIPOS>MOLECULE
*****
 41 45 0 0 0
SMALL
GASTEIGER

@<TRIPOS>ATOM
      1 C         141.4553  140.7902  164.2781 C.3     1  UNL1        0.1103
      2 C         141.4596  141.1904  165.7237 C.3     1  UNL1        0.0828
      3 N         142.2206  140.3739  166.7257 N.3     1  UNL1       -0.2734
      4 C         142.9773  139.1571  166.2821 C.3     1  UNL1        0.0738
      5 C         142.9731  138.7569  164.8365 C.3     1  UNL1        0.0374
      6 C         142.2121  139.5735  163.8345 C.3     1  UNL1        0.0832
      7 C         142.2248  140.7740  168.1714 C.3     1  UNL1        0.0575
      8 C         141.5090  139.9313  169.1850 C.3     1  UNL1        0.0160
      9 C         141.5132  140.3314  170.6306 C.3     1  UNL1        0.0014
     10 C         142.2333  141.5743  171.0627 C.3     1  UNL1        0.0001
     11 C         142.9492  142.4171  170.0491 C.3     1  UNL1        0.0014
     12 C         142.9449  142.0169  168.6034 C.3     1  UNL1        0.0160
     13 N         139.2067  141.7523  163.4016 N.am    1  UNL1       -0.3007
     14 C         140.6943  141.6068  163.2760 C.2     1  UNL1        0.2252
     15 O         141.4209  142.2779  162.1484 O.2     1  UNL1       -0.2750
     16 H         138.7298  141.3118  164.1418 H       1  UNL1        0.1497
     17 C         137.8109  143.8632  162.8137 C.3     1  UNL1        0.0278
     18 C         138.4457  142.5689  162.3996 C.3     1  UNL1        0.1119
     19 C         138.3194  142.0910  160.9833 C.ar    1  UNL1        0.0768
     20 C         138.0127  140.6498  160.7026 C.ar    1  UNL1        0.0164
     21 C         137.8865  140.1719  159.2864 C.ar    1  UNL1        0.0029
     22 C         138.0670  141.1352  158.1509 C.ar    1  UNL1        0.0207
     23 C         138.3738  142.5765  158.4316 C.ar    1  UNL1        0.0985
     24 N         138.5000  143.0544  159.8478 N.ar    1  UNL1       -0.2465
     25 N         142.2078  139.1733  162.3889 N.am    1  UNL1       -0.3006
     26 C         143.3729  139.5219  161.5107 C.2     1  UNL1        0.2669
     27 O         144.5422  140.2708  162.0783 O.2     1  UNL1       -0.2684
     28 H         141.4404  138.6818  162.0164 H       1  UNL1        0.1497
     29 C         143.3687  139.1218  160.0651 C.ar    1  UNL1        0.1761
     30 C         142.6709  137.9286  159.4826 C.ar    1  UNL1        0.0673
     31 C         142.9324  137.9139  158.0057 C.ar    1  UNL1        0.1792
     32 O         143.7919  139.0981  157.6754 O.2     1  UNL1       -0.3532
     33 N         144.0615  139.8446  158.9482 N.ar    1  UNL1       -0.0723
     34 C         142.4238  136.8942  157.0303 C.ar    1  UNL1        0.0648
     35 C         143.2803  135.7206  156.6572 C.ar    1  UNL1        0.0077
     36 C         142.7718  134.7008  155.6818 C.ar    1  UNL1        0.0299
     37 C         141.4066  134.8546  155.0795 C.ar    1  UNL1        0.1424
     38 F         140.8980  133.8348  154.1041 F       1  UNL1       -0.2041
     39 C         140.5501  136.0282  155.4525 C.ar    1  UNL1        0.0593
     40 C         141.0587  137.0479  156.4280 C.ar    1  UNL1        0.1453
     41 F         140.2022  138.2215  156.8010 F       1  UNL1       -0.2040
@<TRIPOS>BOND
     1    18    17    1
     2    18    13    1
     3    13    14   am
     4    14    15    2
     5     1    14    1
     6     1     2    1
     7     2     3    1
     8     3     7    1
     9     7     8    1
    10     8     9    1
    11     9    10    1
    12    10    11    1
    13    11    12    1
    14     3     4    1
    15     4     5    1
    16     5     6    1
    17     6    25    1
    18    25    26   am
    19    26    27    2
    20    26    29    1
    21    29    30   ar
    22    30    31   ar
    23    31    34    1
    24    34    35   ar
    25    35    36   ar
    26    36    37   ar
    27    37    38    1
    28    37    39   ar
    29    39    40   ar
    30    40    41    1
    31    31    32   ar
    32    32    33   ar
    33    18    19    1
    34    19    20   ar
    35    20    21   ar
    36    21    22   ar
    37    22    23   ar
    38    23    24   ar
    39     6     1    1
    40    33    29   ar
    41    24    19   ar
    42    12     7    1
    43    40    34   ar
    44    13    16    1
    45    25    28    1
@<TRIPOS>MOLECULE
*****
 41 45 0 0 0
SMALL
GASTEIGER

@<TRIPOS>ATOM
      1 C         142.8648  142.8250  163.6417 C.3     1  UNL1        0.1103
      2 C         142.3714  143.0363  165.0423 C.3     1  UNL1        0.0828
      3 N         142.7341  142.0588  166.1207 N.3     1  UNL1       -0.2734
      4 C         143.5902  140.8700  165.7985 C.3     1  UNL1        0.0738
      5 C         144.0837  140.6587  164.3978 C.3     1  UNL1        0.0374
      6 C         143.7210  141.6362  163.3195 C.3     1  UNL1        0.0832
      7 C         142.2406  142.2701  167.5214 C.3     1  UNL1        0.0575
      8 C         140.7804  142.5010  167.7753 C.3     1  UNL1        0.0160
      9 C         140.2869  142.7123  169.1759 C.3     1  UNL1        0.0014
     10 C         141.2537  142.6926  170.3228 C.3     1  UNL1        0.0001
     11 C         142.7139  142.4616  170.0689 C.3     1  UNL1        0.0014
     12 C         143.2073  142.2504  168.6681 C.3     1  UNL1        0.0160
     13 N         141.1057  143.8320  162.0164 N.am    1  UNL1       -0.3007
     14 C         142.5022  143.8025  162.5632 C.2     1  UNL1        0.2252
     15 O         143.5360  144.7504  162.0316 O.2     1  UNL1       -0.2750
     16 H         140.4272  143.2098  162.3653 H       1  UNL1        0.1497
     17 C         139.9886  146.0595  161.2815 C.3     1  UNL1        0.0278
     18 C         140.7431  144.8095  160.9379 C.3     1  UNL1        0.1119
     19 C         141.1349  144.5369  159.5159 C.ar    1  UNL1        0.0768
     20 C         140.7773  143.2276  158.8772 C.ar    1  UNL1        0.0164
     21 C         141.1691  142.9550  157.4552 C.ar    1  UNL1        0.0029
     22 C         141.9186  143.9916  156.6719 C.ar    1  UNL1        0.0207
     23 C         142.2763  145.3009  157.3105 C.ar    1  UNL1        0.0985
     24 N         141.8844  145.5735  158.7326 N.ar    1  UNL1       -0.2465
     25 N         144.2145  141.4249  161.9187 N.am    1  UNL1       -0.3006
     26 C         143.2735  140.9359  160.8578 C.2     1  UNL1        0.2669
     27 O         141.8391  140.6582  161.1977 O.2     1  UNL1       -0.2684
     28 H         145.1559  141.6072  161.6957 H       1  UNL1        0.1497
     29 C         143.7669  140.7246  159.4572 C.ar    1  UNL1        0.1761
     30 C         144.3311  141.7798  158.5526 C.ar    1  UNL1        0.0673
     31 C         144.6956  141.1284  157.2515 C.ar    1  UNL1        0.1792
     32 O         144.3567  139.6706  157.3520 O.2     1  UNL1       -0.3532
     33 N         143.7828  139.4211  158.7152 N.ar    1  UNL1       -0.0723
     34 C         145.2940  141.8144  156.0593 C.ar    1  UNL1        0.0648
     35 C         144.5793  141.7863  154.7408 C.ar    1  UNL1        0.0077
     36 C         145.1775  142.4722  153.5485 C.ar    1  UNL1        0.0299
     37 C         146.4907  143.1863  153.6747 C.ar    1  UNL1        0.1424
     38 F         147.0891  143.8722  152.4825 F       1  UNL1       -0.2041
     39 C         147.2054  143.2143  154.9932 C.ar    1  UNL1        0.0593
     40 C         146.6071  142.5284  156.1855 C.ar    1  UNL1        0.1453
     41 F         147.3218  142.5565  157.5039 F       1  UNL1       -0.2040
@<TRIPOS>BOND
     1    18    17    1
     2    18    13    1
     3    13    14   am
     4    14    15    2
     5     1    14    1
     6     1     2    1
     7     2     3    1
     8     3     7    1
     9     7     8    1
    10     8     9    1
    11     9    10    1
    12    10    11    1
    13    11    12    1
    14     3     4    1
    15     4     5    1
    16     5     6    1
    17     6    25    1
    18    25    26   am
    19    26    27    2
    20    26    29    1
    21    29    30   ar
    22    30    31   ar
    23    31    34    1
    24    34    35   ar
    25    35    36   ar
    26    36    37   ar
    27    37    38    1
    28    37    39   ar
    29    39    40   ar
    30    40    41    1
    31    31    32   ar
    32    32    33   ar
    33    18    19    1
    34    19    20   ar
    35    20    21   ar
    36    21    22   ar
    37    22    23   ar
    38    23    24   ar
    39     6     1    1
    40    33    29   ar
    41    24    19   ar
    42    12     7    1
    43    40    34   ar
    44    13    16    1
    45    25    28    1
@<TRIPOS>MOLECULE
*****
 41 45 0 0 0
SMALL
GASTEIGER

@<TRIPOS>ATOM
      1 C         138.7082  142.0193  159.3565 C.3     1  UNL1        0.1103
      2 C         138.1936  142.4918  158.0292 C.3     1  UNL1        0.0828
      3 N         138.2012  141.5659  156.8491 N.3     1  UNL1       -0.2734
      4 C         138.7233  140.1674  156.9964 C.3     1  UNL1        0.0738
      5 C         139.2378  139.6949  158.3238 C.3     1  UNL1        0.0374
      6 C         139.2303  140.6208  159.5038 C.3     1  UNL1        0.0832
      7 C         137.6867  142.0385  155.5217 C.3     1  UNL1        0.0575
      8 C         136.3057  141.6601  155.0748 C.3     1  UNL1        0.0160
      9 C         135.7911  142.1326  153.7474 C.3     1  UNL1        0.0014
     10 C         136.6576  142.9835  152.8669 C.3     1  UNL1        0.0001
     11 C         138.0386  143.3618  153.3138 C.3     1  UNL1        0.0014
     12 C         138.5531  142.8893  154.6412 C.3     1  UNL1        0.0160
     13 N         139.8296  143.9119  160.7387 N.am    1  UNL1       -0.3007
     14 C         138.7006  142.9452  160.5367 C.2     1  UNL1        0.2252
     15 O         137.5641  142.9043  161.5147 O.2     1  UNL1       -0.2750
     16 H         140.5755  143.9387  160.0968 H       1  UNL1        0.1497
     17 C         139.6005  146.3077  161.7176 C.3     1  UNL1        0.0278
     18 C         139.8220  144.8379  161.9189 C.3     1  UNL1        0.1119
     19 C         140.0360  144.2939  163.3003 C.ar    1  UNL1        0.0768
     20 C         139.0117  144.5366  164.3689 C.ar    1  UNL1        0.0164
     21 C         139.2256  143.9926  165.7503 C.ar    1  UNL1        0.0029
     22 C         140.4638  143.2060  166.0631 C.ar    1  UNL1        0.0207
     23 C         141.4882  142.9632  164.9945 C.ar    1  UNL1        0.0985
     24 N         141.2743  143.5072  163.6131 N.ar    1  UNL1       -0.2465
     25 N         139.7448  140.1483  160.8313 N.am    1  UNL1       -0.3006
     26 C         138.8041  139.5325  161.8242 C.2     1  UNL1        0.2669
     27 O         137.3488  139.3893  161.4897 O.2     1  UNL1       -0.2684
     28 H         140.6999  140.2423  161.0508 H       1  UNL1        0.1497
     29 C         139.3185  139.0600  163.1516 C.ar    1  UNL1        0.1761
     30 C         139.6810  139.9312  164.3175 C.ar    1  UNL1        0.0673
     31 C         140.1474  139.0430  165.4326 C.ar    1  UNL1        0.1792
     32 O         140.0731  137.6226  164.9559 O.2     1  UNL1       -0.3532
     33 N         139.5608  137.6332  163.5461 N.ar    1  UNL1       -0.0723
     34 C         140.6073  139.4955  166.7868 C.ar    1  UNL1        0.0648
     35 C         139.6012  139.8823  167.8300 C.ar    1  UNL1        0.0077
     36 C         140.0610  140.3348  169.1842 C.ar    1  UNL1        0.0299
     37 C         141.5271  140.4006  169.4951 C.ar    1  UNL1        0.1424
     38 F         141.9869  140.8532  170.8493 F       1  UNL1       -0.2041
     39 C         142.5331  140.0139  168.4519 C.ar    1  UNL1        0.0593
     40 C         142.0732  139.5613  167.0977 C.ar    1  UNL1        0.1453
     41 F         143.0792  139.1746  166.0545 F       1  UNL1       -0.2040
@<TRIPOS>BOND
     1    18    17    1
     2    18    13    1
     3    13    14   am
     4    14    15    2
     5     1    14    1
     6     1     2    1
     7     2     3    1
     8     3     7    1
     9     7     8    1
    10     8     9    1
    11     9    10    1
    12    10    11    1
    13    11    12    1
    14     3     4    1
    15     4     5    1
    16     5     6    1
    17     6    25    1
    18    25    26   am
    19    26    27    2
    20    26    29    1
    21    29    30   ar
    22    30    31   ar
    23    31    34    1
    24    34    35   ar
    25    35    36   ar
    26    36    37   ar
    27    37    38    1
    28    37    39   ar
    29    39    40   ar
    30    40    41    1
    31    31    32   ar
    32    32    33   ar
    33    18    19    1
    34    19    20   ar
    35    20    21   ar
    36    21    22   ar
    37    22    23   ar
    38    23    24   ar
    39     6     1    1
    40    33    29   ar
    41    24    19   ar
    42    12     7    1
    43    40    34   ar
    44    13    16    1
    45    25    28    1
@<TRIPOS>MOLECULE
*****
 41 45 0 0 0
SMALL
GASTEIGER

@<TRIPOS>ATOM
      1 C         141.9438  137.5086  157.3446 C.3     1  UNL1        0.1103
      2 C         142.3889  136.2296  156.6996 C.3     1  UNL1        0.0828
      3 N         141.6633  135.7044  155.4964 N.3     1  UNL1       -0.2734
      4 C         140.4927  136.4581  154.9382 C.3     1  UNL1        0.0738
      5 C         140.0476  137.7371  155.5832 C.3     1  UNL1        0.0374
      6 C         140.7732  138.2623  156.7864 C.3     1  UNL1        0.0832
      7 C         142.1084  134.4254  154.8513 C.3     1  UNL1        0.0575
      8 C         143.0364  133.5004  155.5816 C.3     1  UNL1        0.0160
      9 C         143.4815  132.2214  154.9366 C.3     1  UNL1        0.0014
     10 C         142.9986  131.8674  153.5612 C.3     1  UNL1        0.0001
     11 C         142.0706  132.7923  152.8309 C.3     1  UNL1        0.0014
     12 C         141.6255  134.0713  153.4760 C.3     1  UNL1        0.0160
     13 N         142.2421  137.6149  159.9233 N.am    1  UNL1       -0.3007
     14 C         142.6693  138.0339  158.5478 C.2     1  UNL1        0.2252
     15 O         143.8220  138.9782  158.3755 O.2     1  UNL1       -0.2750
     16 H         141.4856  136.9951  160.0364 H       1  UNL1        0.1497
     17 C         144.4010  137.7653  161.3609 C.3     1  UNL1        0.0278
     18 C         142.9677  138.1402  161.1266 C.3     1  UNL1        0.1119
     19 C         142.2598  139.0403  162.0954 C.ar    1  UNL1        0.0768
     20 C         142.7087  140.4616  162.2641 C.ar    1  UNL1        0.0164
     21 C         142.0008  141.3617  163.2330 C.ar    1  UNL1        0.0029
     22 C         140.8440  140.8406  164.0331 C.ar    1  UNL1        0.0207
     23 C         140.3950  139.4193  163.8644 C.ar    1  UNL1        0.0985
     24 N         141.1029  138.5192  162.8955 N.ar    1  UNL1       -0.2465
     25 N         140.3281  139.5413  157.4315 N.am    1  UNL1       -0.3006
     26 C         139.5876  139.5056  158.7355 C.2     1  UNL1        0.2669
     27 O         139.2922  138.1908  159.3944 O.2     1  UNL1       -0.2684
     28 H         140.5220  140.4043  156.9991 H       1  UNL1        0.1497
     29 C         139.1425  140.7845  159.3806 C.ar    1  UNL1        0.1761
     30 C         139.2803  141.1340  160.8328 C.ar    1  UNL1        0.0673
     31 C         138.7044  142.5040  161.0365 C.ar    1  UNL1        0.1792
     32 O         138.2108  143.0012  159.7102 O.2     1  UNL1       -0.3532
     33 N         138.4815  141.9385  158.6868 N.ar    1  UNL1       -0.0723
     34 C         138.6345  143.2464  162.3380 C.ar    1  UNL1        0.0648
     35 C         139.5575  144.4009  162.5934 C.ar    1  UNL1        0.0077
     36 C         139.4877  145.1434  163.8949 C.ar    1  UNL1        0.0299
     37 C         138.4947  144.7313  164.9410 C.ar    1  UNL1        0.1424
     38 F         138.4248  145.4738  166.2426 F       1  UNL1       -0.2041
     39 C         137.5718  143.5768  164.6856 C.ar    1  UNL1        0.0593
     40 C         137.6417  142.8344  163.3841 C.ar    1  UNL1        0.1453
     41 F         136.7187  141.6799  163.1287 F       1  UNL1       -0.2040
@<TRIPOS>BOND
     1    18    17    1
     2    18    13    1
     3    13    14   am
     4    14    15    2
     5     1    14    1
     6     1     2    1
     7     2     3    1
     8     3     7    1
     9     7     8    1
    10     8     9    1
    11     9    10    1
    12    10    11    1
    13    11    12    1
    14     3     4    1
    15     4     5    1
    16     5     6    1
    17     6    25    1
    18    25    26   am
    19    26    27    2
    20    26    29    1
    21    29    30   ar
    22    30    31   ar
    23    31    34    1
    24    34    35   ar
    25    35    36   ar
    26    36    37   ar
    27    37    38    1
    28    37    39   ar
    29    39    40   ar
    30    40    41    1
    31    31    32   ar
    32    32    33   ar
    33    18    19    1
    34    19    20   ar
    35    20    21   ar
    36    21    22   ar
    37    22    23   ar
    38    23    24   ar
    39     6     1    1
    40    33    29   ar
    41    24    19   ar
    42    12     7    1
    43    40    34   ar
    44    13    16    1
    45    25    28    1
@<TRIPOS>MOLECULE
*****
 41 45 0 0 0
SMALL
GASTEIGER

@<TRIPOS>ATOM
      1 C         140.3882  145.5185  157.0400 C.3     1  UNL1        0.1103
      2 C         140.2778  146.8430  156.3447 C.3     1  UNL1        0.0828
      3 N         139.9609  146.8969  154.8796 N.3     1  UNL1       -0.2734
      4 C         139.7543  145.6262  154.1098 C.3     1  UNL1        0.0738
      5 C         139.8647  144.3017  154.8050 C.3     1  UNL1        0.0374
      6 C         140.1816  144.2478  156.2701 C.3     1  UNL1        0.0832
      7 C         139.8505  148.2214  154.1843 C.3     1  UNL1        0.0575
      8 C         140.3282  148.3681  152.7700 C.3     1  UNL1        0.0160
      9 C         140.2178  149.6926  152.0747 C.3     1  UNL1        0.0014
     10 C         139.6297  150.8705  152.7936 C.3     1  UNL1        0.0001
     11 C         139.1521  150.7238  154.2080 C.3     1  UNL1        0.0014
     12 C         139.2624  149.3992  154.9033 C.3     1  UNL1        0.0160
     13 N         139.6315  145.1145  159.4924 N.am    1  UNL1       -0.3007
     14 C         140.7051  145.4646  158.5052 C.2     1  UNL1        0.2252
     15 O         142.0958  145.7609  158.9831 O.2     1  UNL1       -0.2750
     16 H         138.7188  144.9200  159.1787 H       1  UNL1        0.1497
     17 C         139.8066  146.2926  161.8014 C.3     1  UNL1        0.0278
     18 C         139.9484  145.0606  160.9576 C.3     1  UNL1        0.1119
     19 C         140.4072  143.7747  161.5789 C.ar    1  UNL1        0.0768
     20 C         141.7709  143.2347  161.2649 C.ar    1  UNL1        0.0164
     21 C         142.2297  141.9488  161.8862 C.ar    1  UNL1        0.0029
     22 C         141.3248  141.2029  162.8214 C.ar    1  UNL1        0.0207
     23 C         139.9610  141.7429  163.1354 C.ar    1  UNL1        0.0985
     24 N         139.5022  143.0288  162.5141 N.ar    1  UNL1       -0.2465
     25 N         140.2920  142.9233  156.9655 N.am    1  UNL1       -0.3006
     26 C         139.0518  142.1845  157.3731 C.2     1  UNL1        0.2669
     27 O         137.7011  142.7704  157.0854 O.2     1  UNL1       -0.2684
     28 H         141.1784  142.5388  157.1543 H       1  UNL1        0.1497
     29 C         139.1621  140.8600  158.0684 C.ar    1  UNL1        0.1761
     30 C         139.6597  140.6365  159.4656 C.ar    1  UNL1        0.0673
     31 C         139.5994  139.1649  159.7493 C.ar    1  UNL1        0.1792
     32 O         139.0644  138.4788  158.5274 O.2     1  UNL1       -0.3532
     33 N         138.7941  139.5265  157.4885 N.ar    1  UNL1       -0.0723
     34 C         140.0031  138.4965  161.0301 C.ar    1  UNL1        0.0648
     35 C         141.4361  138.1168  161.2586 C.ar    1  UNL1        0.0077
     36 C         141.8399  137.4485  162.5394 C.ar    1  UNL1        0.0299
     37 C         140.8106  137.1599  163.5917 C.ar    1  UNL1        0.1424
     38 F         141.2143  136.4916  164.8725 F       1  UNL1       -0.2041
     39 C         139.3775  137.5396  163.3631 C.ar    1  UNL1        0.0593
     40 C         138.9738  138.2080  162.0824 C.ar    1  UNL1        0.1453
     41 F         137.5408  138.5877  161.8538 F       1  UNL1       -0.2040
@<TRIPOS>BOND
     1    18    17    1
     2    18    13    1
     3    13    14   am
     4    14    15    2
     5     1    14    1
     6     1     2    1
     7     2     3    1
     8     3     7    1
     9     7     8    1
    10     8     9    1
    11     9    10    1
    12    10    11    1
    13    11    12    1
    14     3     4    1
    15     4     5    1
    16     5     6    1
    17     6    25    1
    18    25    26   am
    19    26    27    2
    20    26    29    1
    21    29    30   ar
    22    30    31   ar
    23    31    34    1
    24    34    35   ar
    25    35    36   ar
    26    36    37   ar
    27    37    38    1
    28    37    39   ar
    29    39    40   ar
    30    40    41    1
    31    31    32   ar
    32    32    33   ar
    33    18    19    1
    34    19    20   ar
    35    20    21   ar
    36    21    22   ar
    37    22    23   ar
    38    23    24   ar
    39     6     1    1
    40    33    29   ar
    41    24    19   ar
    42    12     7    1
    43    40    34   ar
    44    13    16    1
    45    25    28    1
