@<TRIPOS>MOLECULE
*****
 26 28 0 0 0
SMALL
GASTEIGER

@<TRIPOS>ATOM
      1 C         145.8272  141.4095  163.8676 C.3     1  UNL1        0.0477
      2 C         144.5236  141.8993  163.3104 C.3     1  UNL1        0.1780
      3 C         144.7924  142.9712  164.3246 C.3     1  UNL1        0.0685
      4 C         143.8215  144.1016  164.4965 C.3     1  UNL1        0.1145
      5 N         142.5817  144.1600  163.6542 N.ar    1  UNL1       -0.2749
      6 C         141.4508  145.1440  163.5996 C.ar    1  UNL1        0.1779
      7 C         140.4831  144.6802  162.5516 C.ar    1  UNL1        0.3976
      8 N         141.0158  143.4096  161.9585 N.ar    1  UNL1       -0.1275
      9 C         142.3128  143.0881  162.6400 C.ar    1  UNL1        0.3057
     10 O         143.2838  141.9578  162.4681 O.3     1  UNL1       -0.4512
     11 N         139.2067  145.3666  162.1645 N.pl3   1  UNL1        0.1030
     12 O         139.2480  146.6102  161.3268 O.2     1  UNL1        0.0432
     13 O         137.8890  144.8092  162.6151 O.co2   1  UNL1       -0.5746
     14 C         144.7075  140.6573  162.4897 C.3     1  UNL1        0.2450
     15 O         144.6123  139.3084  163.1388 O.3     1  UNL1       -0.4717
     16 C         143.2843  138.7952  163.6110 C.ar    1  UNL1        0.1389
     17 C         142.8838  138.9605  165.0470 C.ar    1  UNL1        0.0400
     18 C         141.5558  138.4472  165.5191 C.ar    1  UNL1        0.0403
     19 C         140.6282  137.7687  164.5551 C.ar    1  UNL1        0.1470
     20 C         141.0287  137.6034  163.1191 C.ar    1  UNL1        0.0403
     21 C         142.3567  138.1166  162.6470 C.ar    1  UNL1        0.0400
     22 O         139.3002  137.2554  165.0272 O.3     1  UNL1       -0.4045
     23 C         138.3645  138.1649  165.7671 C.3     1  UNL1        0.5753
     24 F         137.4288  139.0743  166.5070 F       1  UNL1       -0.1328
     25 F         138.7578  139.3002  164.8691 F       1  UNL1       -0.1328
     26 F         137.9712  137.0296  166.6652 F       1  UNL1       -0.1328
@<TRIPOS>UNITY_ATOM_ATTR
11 1
charge 1
13 1
charge -1
@<TRIPOS>BOND
     1     1     2    1
     2     2    14    1
     3    14    15    1
     4    15    16    1
     5    16    17   ar
     6    17    18   ar
     7    18    19   ar
     8    19    22    1
     9    22    23    1
    10    23    24    1
    11    23    25    1
    12    23    26    1
    13    19    20   ar
    14    20    21   ar
    15     2     3    1
    16     3     4    1
    17     4     5    1
    18     5     6   ar
    19     6     7   ar
    20     7    11    1
    21    11    12    2
    22    11    13    1
    23     7     8   ar
    24     8     9   ar
    25     9    10    1
    26    10     2    1
    27    21    16   ar
    28     9     5   ar
@<TRIPOS>MOLECULE
*****
 26 28 0 0 0
SMALL
GASTEIGER

@<TRIPOS>ATOM
      1 C         137.6421  143.7821  163.1980 C.3     1  UNL1        0.0477
      2 C         138.5007  143.3621  164.3541 C.3     1  UNL1        0.1780
      3 C         137.8620  142.0484  164.0132 C.3     1  UNL1        0.0685
      4 C         138.2002  140.8217  164.8074 C.3     1  UNL1        0.1145
      5 N         139.1770  140.9087  165.9424 N.ar    1  UNL1       -0.2749
      6 C         139.7017  139.8769  166.8965 C.ar    1  UNL1        0.1779
      7 C         140.6646  140.5529  167.8269 C.ar    1  UNL1        0.3976
      8 N         140.7350  142.0026  167.4479 N.ar    1  UNL1       -0.1275
      9 C         139.8157  142.2225  166.2833 C.ar    1  UNL1        0.3057
     10 O         139.4775  143.4492  165.4891 O.3     1  UNL1       -0.4512
     11 N         141.4239  139.8949  168.9407 N.pl3   1  UNL1        0.1030
     12 O         140.6980  139.4174  170.1634 O.2     1  UNL1        0.0432
     13 O         142.9090  139.7145  168.8318 O.co2   1  UNL1       -0.5746
     14 C         138.8411  144.8217  164.2934 C.3     1  UNL1        0.2450
     15 O         139.7856  145.3287  163.2442 O.3     1  UNL1       -0.4717
     16 C         141.1245  144.6772  163.0623 C.ar    1  UNL1        0.1389
     17 C         141.2666  143.4982  162.1459 C.ar    1  UNL1        0.0400
     18 C         142.6054  142.8468  161.9641 C.ar    1  UNL1        0.0403
     19 C         143.8022  143.3744  162.6985 C.ar    1  UNL1        0.1470
     20 C         143.6601  144.5534  163.6149 C.ar    1  UNL1        0.0403
     21 C         142.3212  145.2049  163.7968 C.ar    1  UNL1        0.0400
     22 O         145.1411  142.7230  162.5166 O.3     1  UNL1       -0.4045
     23 C         145.4730  141.4681  163.2684 C.3     1  UNL1        0.5753
     24 F         145.8049  140.2132  164.0201 F       1  UNL1       -0.1328
     25 F         145.8654  142.2870  164.4623 F       1  UNL1       -0.1328
     26 F         145.0806  140.6491  162.0745 F       1  UNL1       -0.1328
@<TRIPOS>UNITY_ATOM_ATTR
11 1
charge 1
13 1
charge -1
@<TRIPOS>BOND
     1     1     2    1
     2     2    14    1
     3    14    15    1
     4    15    16    1
     5    16    17   ar
     6    17    18   ar
     7    18    19   ar
     8    19    22    1
     9    22    23    1
    10    23    24    1
    11    23    25    1
    12    23    26    1
    13    19    20   ar
    14    20    21   ar
    15     2     3    1
    16     3     4    1
    17     4     5    1
    18     5     6   ar
    19     6     7   ar
    20     7    11    1
    21    11    12    2
    22    11    13    1
    23     7     8   ar
    24     8     9   ar
    25     9    10    1
    26    10     2    1
    27    21    16   ar
    28     9     5   ar
@<TRIPOS>MOLECULE
*****
 26 28 0 0 0
SMALL
GASTEIGER

@<TRIPOS>ATOM
      1 C         140.6226  137.6538  164.2885 C.3     1  UNL1        0.0477
      2 C         140.4379  138.5329  165.4898 C.3     1  UNL1        0.1780
      3 C         141.9346  138.4360  165.4656 C.3     1  UNL1        0.0685
      4 C         142.7490  139.1457  166.5062 C.3     1  UNL1        0.1145
      5 N         142.0667  139.9524  167.5710 N.ar    1  UNL1       -0.2749
      6 C         142.6019  140.7552  168.7197 C.ar    1  UNL1        0.1779
      7 C         141.4359  141.3482  169.4537 C.ar    1  UNL1        0.3976
      8 N         140.1802  140.9120  168.7587 N.ar    1  UNL1       -0.1275
      9 C         140.5701  140.0493  167.5952 C.ar    1  UNL1        0.3057
     10 O         139.7557  139.3396  166.5546 O.3     1  UNL1       -0.4512
     11 N         141.5122  142.2238  170.6693 N.pl3   1  UNL1        0.1030
     12 O         142.4853  143.3644  170.7122 O.2     1  UNL1        0.0432
     13 O         140.6153  141.9586  171.8420 O.co2   1  UNL1       -0.5746
     14 C         139.0054  138.3245  165.0968 C.3     1  UNL1        0.2450
     15 O         138.5326  138.7424  163.7360 O.3     1  UNL1       -0.4717
     16 C         138.4644  140.1979  163.3798 C.ar    1  UNL1        0.1389
     17 C         139.0666  140.6846  162.0952 C.ar    1  UNL1        0.0400
     18 C         138.9984  142.1401  161.7390 C.ar    1  UNL1        0.0403
     19 C         138.3280  143.1088  162.6675 C.ar    1  UNL1        0.1470
     20 C         137.7258  142.6221  163.9522 C.ar    1  UNL1        0.0403
     21 C         137.7940  141.1666  164.3083 C.ar    1  UNL1        0.0400
     22 O         138.2598  144.5643  162.3113 O.3     1  UNL1       -0.4045
     23 C         139.4940  145.4135  162.3863 C.3     1  UNL1        0.5753
     24 F         140.7282  146.2627  162.4611 F       1  UNL1       -0.1328
     25 F         139.3874  145.4365  163.8822 F       1  UNL1       -0.1328
     26 F         139.6006  145.3905  160.8901 F       1  UNL1       -0.1328
@<TRIPOS>UNITY_ATOM_ATTR
11 1
charge 1
13 1
charge -1
@<TRIPOS>BOND
     1     1     2    1
     2     2    14    1
     3    14    15    1
     4    15    16    1
     5    16    17   ar
     6    17    18   ar
     7    18    19   ar
     8    19    22    1
     9    22    23    1
    10    23    24    1
    11    23    25    1
    12    23    26    1
    13    19    20   ar
    14    20    21   ar
    15     2     3    1
    16     3     4    1
    17     4     5    1
    18     5     6   ar
    19     6     7   ar
    20     7    11    1
    21    11    12    2
    22    11    13    1
    23     7     8   ar
    24     8     9   ar
    25     9    10    1
    26    10     2    1
    27    21    16   ar
    28     9     5   ar
@<TRIPOS>MOLECULE
*****
 26 28 0 0 0
SMALL
GASTEIGER

@<TRIPOS>ATOM
      1 C         140.4855  138.1315  162.5307 C.3     1  UNL1        0.0477
      2 C         139.8635  138.4405  163.8602 C.3     1  UNL1        0.1780
      3 C         141.2696  138.8941  164.1189 C.3     1  UNL1        0.0685
      4 C         141.6404  139.4619  165.4568 C.3     1  UNL1        0.1145
      5 N         140.6050  139.5761  166.5361 N.ar    1  UNL1       -0.2749
      6 C         140.6747  140.0908  167.9434 C.ar    1  UNL1        0.1779
      7 C         139.3115  139.9554  168.5544 C.ar    1  UNL1        0.3976
      8 N         138.3994  139.3570  167.5248 N.ar    1  UNL1       -0.1275
      9 C         139.1988  139.1226  166.2775 C.ar    1  UNL1        0.3057
     10 O         138.8281  138.5548  164.9395 O.3     1  UNL1       -0.4512
     11 N         138.9278  140.3492  169.9501 N.pl3   1  UNL1        0.1030
     12 O         139.6618  141.4572  170.6454 O.2     1  UNL1        0.0432
     13 O         137.8100  139.6349  170.6503 O.co2   1  UNL1       -0.5746
     14 C         138.6733  137.8797  163.1399 C.3     1  UNL1        0.2450
     15 O         137.9594  138.7076  162.1129 O.3     1  UNL1       -0.4717
     16 C         138.0384  140.2044  162.1691 C.ar    1  UNL1        0.1389
     17 C         138.7797  140.9569  161.1041 C.ar    1  UNL1        0.0400
     18 C         138.8587  142.4538  161.1604 C.ar    1  UNL1        0.0403
     19 C         138.1963  143.1981  162.2817 C.ar    1  UNL1        0.1470
     20 C         137.4550  142.4457  163.3466 C.ar    1  UNL1        0.0403
     21 C         137.3760  140.9488  163.2904 C.ar    1  UNL1        0.0400
     22 O         138.2753  144.6950  162.3379 O.3     1  UNL1       -0.4045
     23 C         139.6003  145.3692  162.5376 C.3     1  UNL1        0.5753
     24 F         140.9253  146.0434  162.7374 F       1  UNL1       -0.1328
     25 F         139.6423  145.7188  161.0796 F       1  UNL1       -0.1328
     26 F         139.5584  145.0197  163.9958 F       1  UNL1       -0.1328
@<TRIPOS>UNITY_ATOM_ATTR
11 1
charge 1
13 1
charge -1
@<TRIPOS>BOND
     1     1     2    1
     2     2    14    1
     3    14    15    1
     4    15    16    1
     5    16    17   ar
     6    17    18   ar
     7    18    19   ar
     8    19    22    1
     9    22    23    1
    10    23    24    1
    11    23    25    1
    12    23    26    1
    13    19    20   ar
    14    20    21   ar
    15     2     3    1
    16     3     4    1
    17     4     5    1
    18     5     6   ar
    19     6     7   ar
    20     7    11    1
    21    11    12    2
    22    11    13    1
    23     7     8   ar
    24     8     9   ar
    25     9    10    1
    26    10     2    1
    27    21    16   ar
    28     9     5   ar
@<TRIPOS>MOLECULE
*****
 26 28 0 0 0
SMALL
GASTEIGER

@<TRIPOS>ATOM
      1 C         144.7155  140.0412  163.4206 C.3     1  UNL1        0.0477
      2 C         144.1611  140.7492  164.6211 C.3     1  UNL1        0.1780
      3 C         143.4116  139.4533  164.7139 C.3     1  UNL1        0.0685
      4 C         142.4348  139.2302  165.8302 C.3     1  UNL1        0.1145
      5 N         142.2077  140.3030  166.8537 N.ar    1  UNL1       -0.2749
      6 C         141.3149  140.3690  168.0574 C.ar    1  UNL1        0.1779
      7 C         141.5128  141.7057  168.7084 C.ar    1  UNL1        0.3976
      8 N         142.5278  142.4659  167.9071 N.ar    1  UNL1       -0.1275
      9 C         142.9572  141.5989  166.7609 C.ar    1  UNL1        0.3057
     10 O         143.9340  141.8220  165.6446 O.3     1  UNL1       -0.4512
     11 N         140.8177  142.1963  169.9439 N.pl3   1  UNL1        0.1030
     12 O         141.1039  143.5718  170.4693 O.2     1  UNL1        0.0432
     13 O         139.8364  141.3114  170.6538 O.co2   1  UNL1       -0.5746
     14 C         145.1032  141.7993  164.1114 C.3     1  UNL1        0.2450
     15 O         144.6667  142.7337  163.0222 O.3     1  UNL1       -0.4717
     16 C         143.3007  143.3518  163.0670 C.ar    1  UNL1        0.1389
     17 C         142.1263  142.6181  162.4905 C.ar    1  UNL1        0.0400
     18 C         140.7603  143.2362  162.5352 C.ar    1  UNL1        0.0403
     19 C         140.5688  144.5880  163.1565 C.ar    1  UNL1        0.1470
     20 C         141.7432  145.3217  163.7330 C.ar    1  UNL1        0.0403
     21 C         143.1092  144.7036  163.6883 C.ar    1  UNL1        0.0400
     22 O         139.2028  145.2061  163.2013 O.3     1  UNL1       -0.4045
     23 C         138.1544  144.6435  164.1148 C.3     1  UNL1        0.5753
     24 F         137.1061  144.0809  165.0284 F       1  UNL1       -0.1328
     25 F         137.4788  143.9975  162.9417 F       1  UNL1       -0.1328
     26 F         138.8301  145.2895  165.2880 F       1  UNL1       -0.1328
@<TRIPOS>UNITY_ATOM_ATTR
11 1
charge 1
13 1
charge -1
@<TRIPOS>BOND
     1     1     2    1
     2     2    14    1
     3    14    15    1
     4    15    16    1
     5    16    17   ar
     6    17    18   ar
     7    18    19   ar
     8    19    22    1
     9    22    23    1
    10    23    24    1
    11    23    25    1
    12    23    26    1
    13    19    20   ar
    14    20    21   ar
    15     2     3    1
    16     3     4    1
    17     4     5    1
    18     5     6   ar
    19     6     7   ar
    20     7    11    1
    21    11    12    2
    22    11    13    1
    23     7     8   ar
    24     8     9   ar
    25     9    10    1
    26    10     2    1
    27    21    16   ar
    28     9     5   ar
@<TRIPOS>MOLECULE
*****
 26 28 0 0 0
SMALL
GASTEIGER

@<TRIPOS>ATOM
      1 C         140.0838  145.5019  162.4354 C.3     1  UNL1        0.0477
      2 C         140.3002  144.6790  163.6707 C.3     1  UNL1        0.1780
      3 C         141.6762  144.6231  163.0762 C.3     1  UNL1        0.0685
      4 C         142.7645  143.8629  163.7745 C.3     1  UNL1        0.1145
      5 N         142.4768  143.1587  165.0673 N.ar    1  UNL1       -0.2749
      6 C         143.3417  142.3373  165.9769 C.ar    1  UNL1        0.1779
      7 C         142.5002  141.8856  167.1335 C.ar    1  UNL1        0.3976
      8 N         141.1152  142.4278  166.9388 N.ar    1  UNL1       -0.1275
      9 C         141.1008  143.2146  165.6618 C.ar    1  UNL1        0.3057
     10 O         140.0125  143.9748  164.9635 O.3     1  UNL1       -0.4512
     11 N         142.9624  141.0401  168.2832 N.pl3   1  UNL1        0.1030
     12 O         142.9386  139.5445  168.1714 O.2     1  UNL1        0.0432
     13 O         143.4485  141.6903  169.5445 O.co2   1  UNL1       -0.5746
     14 C         138.8490  145.0207  163.8361 C.3     1  UNL1        0.2450
     15 O         137.8133  144.3136  163.0131 O.3     1  UNL1       -0.4717
     16 C         137.8833  142.8257  162.8363 C.ar    1  UNL1        0.1389
     17 C         138.1063  142.2422  161.4726 C.ar    1  UNL1        0.0400
     18 C         138.1763  140.7543  161.2958 C.ar    1  UNL1        0.0403
     19 C         138.0233  139.8499  162.4827 C.ar    1  UNL1        0.1470
     20 C         137.8003  140.4335  163.8464 C.ar    1  UNL1        0.0403
     21 C         137.7304  141.9214  164.0232 C.ar    1  UNL1        0.0400
     22 O         138.0933  138.3621  162.3059 O.3     1  UNL1       -0.4045
     23 C         139.3216  137.6132  162.7306 C.3     1  UNL1        0.5753
     24 F         140.5500  136.8643  163.1553 F       1  UNL1       -0.1328
     25 F         138.6909  137.3339  164.0626 F       1  UNL1       -0.1328
     26 F         139.9524  137.8924  161.3986 F       1  UNL1       -0.1328
@<TRIPOS>UNITY_ATOM_ATTR
11 1
charge 1
13 1
charge -1
@<TRIPOS>BOND
     1     1     2    1
     2     2    14    1
     3    14    15    1
     4    15    16    1
     5    16    17   ar
     6    17    18   ar
     7    18    19   ar
     8    19    22    1
     9    22    23    1
    10    23    24    1
    11    23    25    1
    12    23    26    1
    13    19    20   ar
    14    20    21   ar
    15     2     3    1
    16     3     4    1
    17     4     5    1
    18     5     6   ar
    19     6     7   ar
    20     7    11    1
    21    11    12    2
    22    11    13    1
    23     7     8   ar
    24     8     9   ar
    25     9    10    1
    26    10     2    1
    27    21    16   ar
    28     9     5   ar
@<TRIPOS>MOLECULE
*****
 26 28 0 0 0
SMALL
GASTEIGER

@<TRIPOS>ATOM
      1 C         139.0228  137.7127  164.4929 C.3     1  UNL1        0.0477
      2 C         139.9242  138.4794  165.4146 C.3     1  UNL1        0.1780
      3 C         138.6073  138.6944  166.0998 C.3     1  UNL1        0.0685
      4 C         138.5405  139.5090  167.3575 C.3     1  UNL1        0.1145
      5 N         139.7906  140.1086  167.9301 N.ar    1  UNL1       -0.2749
      6 C         140.0333  140.9516  169.1469 C.ar    1  UNL1        0.1779
      7 C         141.5003  141.2575  169.2137 C.ar    1  UNL1        0.3976
      8 N         142.1641  140.6036  168.0382 N.ar    1  UNL1       -0.1275
      9 C         141.1075  139.8935  167.2449 C.ar    1  UNL1        0.3057
     10 O         141.1743  139.0789  165.9872 O.3     1  UNL1       -0.4512
     11 N         142.1835  142.0740  170.2705 N.pl3   1  UNL1        0.1030
     12 O         141.6149  142.1327  171.6573 O.2     1  UNL1        0.0432
     13 O         143.4352  142.8317  169.9403 O.co2   1  UNL1       -0.5746
     14 C         140.9281  137.9981  164.4094 C.3     1  UNL1        0.2450
     15 O         140.9724  138.6109  163.0410 O.3     1  UNL1       -0.4717
     16 C         141.3620  140.0500  162.8759 C.ar    1  UNL1        0.1389
     17 C         142.7754  140.4790  163.1371 C.ar    1  UNL1        0.0400
     18 C         143.1650  141.9181  162.9720 C.ar    1  UNL1        0.0403
     19 C         142.1411  142.9281  162.5457 C.ar    1  UNL1        0.1470
     20 C         140.7278  142.4990  162.2845 C.ar    1  UNL1        0.0403
     21 C         140.3382  141.0600  162.4496 C.ar    1  UNL1        0.0400
     22 O         142.5307  144.3672  162.3805 O.3     1  UNL1       -0.4045
     23 C         143.2796  145.0716  163.4728 C.3     1  UNL1        0.5753
     24 F         144.0286  145.7760  164.5650 F       1  UNL1       -0.1328
     25 F         142.0150  145.1762  164.2725 F       1  UNL1       -0.1328
     26 F         144.5444  144.9670  162.6730 F       1  UNL1       -0.1328
@<TRIPOS>UNITY_ATOM_ATTR
11 1
charge 1
13 1
charge -1
@<TRIPOS>BOND
     1     1     2    1
     2     2    14    1
     3    14    15    1
     4    15    16    1
     5    16    17   ar
     6    17    18   ar
     7    18    19   ar
     8    19    22    1
     9    22    23    1
    10    23    24    1
    11    23    25    1
    12    23    26    1
    13    19    20   ar
    14    20    21   ar
    15     2     3    1
    16     3     4    1
    17     4     5    1
    18     5     6   ar
    19     6     7   ar
    20     7    11    1
    21    11    12    2
    22    11    13    1
    23     7     8   ar
    24     8     9   ar
    25     9    10    1
    26    10     2    1
    27    21    16   ar
    28     9     5   ar
@<TRIPOS>MOLECULE
*****
 26 28 0 0 0
SMALL
GASTEIGER

@<TRIPOS>ATOM
      1 C         139.7653  140.0433  169.0235 C.3     1  UNL1        0.0477
      2 C         139.6412  140.6821  167.6720 C.3     1  UNL1        0.1780
      3 C         138.8010  139.4579  167.4595 C.3     1  UNL1        0.0685
      4 C         138.1435  139.2206  166.1324 C.3     1  UNL1        0.1145
      5 N         138.3261  140.2077  165.0178 N.ar    1  UNL1       -0.2749
      6 C         137.8057  140.2410  163.6113 C.ar    1  UNL1        0.1779
      7 C         138.3243  141.4859  162.9546 C.ar    1  UNL1        0.3976
      8 N         139.1652  142.2219  163.9552 N.ar    1  UNL1       -0.1275
      9 C         139.1663  141.4319  165.2303 C.ar    1  UNL1        0.3057
     10 O         139.8238  141.6692  166.5574 O.3     1  UNL1       -0.4512
     11 N         138.0502  141.9188  161.5447 N.pl3   1  UNL1        0.1030
     12 O         137.9666  140.8975  160.4494 O.2     1  UNL1        0.0432
     13 O         137.8596  143.3730  161.2304 O.co2   1  UNL1       -0.5746
     14 C         140.5245  141.6845  168.3539 C.3     1  UNL1        0.2450
     15 O         142.0110  141.4851  168.3714 O.3     1  UNL1       -0.4717
     16 C         142.7042  140.9056  167.1740 C.ar    1  UNL1        0.1389
     17 C         142.8620  139.4196  167.0451 C.ar    1  UNL1        0.0400
     18 C         143.5552  138.8400  165.8477 C.ar    1  UNL1        0.0403
     19 C         144.0906  139.7467  164.7793 C.ar    1  UNL1        0.1470
     20 C         143.9329  141.2327  164.9083 C.ar    1  UNL1        0.0403
     21 C         143.2397  141.8122  166.1056 C.ar    1  UNL1        0.0400
     22 O         144.7838  139.1671  163.5820 O.3     1  UNL1       -0.4045
     23 C         144.0951  139.1548  162.2495 C.3     1  UNL1        0.5753
     24 F         143.4063  139.1424  160.9170 F       1  UNL1       -0.1328
     25 F         144.8519  140.3857  161.8469 F       1  UNL1       -0.1328
     26 F         143.3383  137.9238  162.6521 F       1  UNL1       -0.1328
@<TRIPOS>UNITY_ATOM_ATTR
11 1
charge 1
13 1
charge -1
@<TRIPOS>BOND
     1     1     2    1
     2     2    14    1
     3    14    15    1
     4    15    16    1
     5    16    17   ar
     6    17    18   ar
     7    18    19   ar
     8    19    22    1
     9    22    23    1
    10    23    24    1
    11    23    25    1
    12    23    26    1
    13    19    20   ar
    14    20    21   ar
    15     2     3    1
    16     3     4    1
    17     4     5    1
    18     5     6   ar
    19     6     7   ar
    20     7    11    1
    21    11    12    2
    22    11    13    1
    23     7     8   ar
    24     8     9   ar
    25     9    10    1
    26    10     2    1
    27    21    16   ar
    28     9     5   ar
@<TRIPOS>MOLECULE
*****
 26 28 0 0 0
SMALL
GASTEIGER

@<TRIPOS>ATOM
      1 C         139.0783  137.6527  162.8826 C.3     1  UNL1        0.0477
      2 C         139.6519  138.9971  162.5458 C.3     1  UNL1        0.1780
      3 C         138.2085  139.2403  162.2183 C.3     1  UNL1        0.0685
      4 C         137.7709  140.5813  161.7083 C.3     1  UNL1        0.1145
      5 N         138.7766  141.6791  161.5259 N.ar    1  UNL1       -0.2749
      6 C         138.6425  143.0935  161.0445 C.ar    1  UNL1        0.1779
      7 C         140.0030  143.7244  161.0746 C.ar    1  UNL1        0.3976
      8 N         140.9780  142.6999  161.5746 N.ar    1  UNL1       -0.1275
      9 C         140.2201  141.4359  161.8535 C.ar    1  UNL1        0.3057
     10 O         140.6577  140.0949  162.3635 O.3     1  UNL1       -0.4512
     11 N         140.3311  145.1325  160.6749 N.pl3   1  UNL1        0.1030
     12 O         139.4380  146.2601  161.0999 O.2     1  UNL1        0.0432
     13 O         141.5522  145.4128  159.8502 O.co2   1  UNL1       -0.5746
     14 C         140.8961  138.2870  162.9904 C.3     1  UNL1        0.2450
     15 O         140.9703  137.6936  164.3660 O.3     1  UNL1       -0.4717
     16 C         141.1598  138.5844  165.5579 C.ar    1  UNL1        0.1389
     17 C         142.5284  138.7760  166.1410 C.ar    1  UNL1        0.0400
     18 C         142.7179  139.6668  167.3329 C.ar    1  UNL1        0.0403
     19 C         141.5387  140.3661  167.9416 C.ar    1  UNL1        0.1470
     20 C         140.1700  140.1745  167.3585 C.ar    1  UNL1        0.0403
     21 C         139.9805  139.2837  166.1666 C.ar    1  UNL1        0.0400
     22 O         141.7282  141.2569  169.1335 O.3     1  UNL1       -0.4045
     23 C         143.1071  141.6896  169.5348 C.3     1  UNL1        0.5753
     24 F         144.4862  142.1225  169.9361 F       1  UNL1       -0.1328
     25 F         143.1960  140.5292  170.4811 F       1  UNL1       -0.1328
     26 F         143.0183  142.8501  168.5884 F       1  UNL1       -0.1328
@<TRIPOS>UNITY_ATOM_ATTR
11 1
charge 1
13 1
charge -1
@<TRIPOS>BOND
     1     1     2    1
     2     2    14    1
     3    14    15    1
     4    15    16    1
     5    16    17   ar
     6    17    18   ar
     7    18    19   ar
     8    19    22    1
     9    22    23    1
    10    23    24    1
    11    23    25    1
    12    23    26    1
    13    19    20   ar
    14    20    21   ar
    15     2     3    1
    16     3     4    1
    17     4     5    1
    18     5     6   ar
    19     6     7   ar
    20     7    11    1
    21    11    12    2
    22    11    13    1
    23     7     8   ar
    24     8     9   ar
    25     9    10    1
    26    10     2    1
    27    21    16   ar
    28     9     5   ar
