@<TRIPOS>MOLECULE
*****
 31 32 0 0 0
SMALL
GASTEIGER

@<TRIPOS>ATOM
      1 N         141.6265  143.7560  164.7295 N.am    1  UNL1       -0.3009
      2 C         140.3013  143.5611  165.4049 C.2     1  UNL1        0.2458
      3 O         139.2176  144.5849  165.2396 O.2     1  UNL1       -0.2701
      4 H         142.3377  143.0840  164.8380 H       1  UNL1        0.1497
      5 C         140.0599  142.3424  166.2454 C.ar    1  UNL1        0.0533
      6 C         139.5666  141.0774  165.6081 C.ar    1  UNL1        0.0083
      7 C         139.3252  139.8587  166.4487 C.ar    1  UNL1        0.0715
      8 C         139.5772  139.9051  167.9266 C.ar    1  UNL1        0.0077
      9 C         140.0706  141.1702  168.5640 C.ar    1  UNL1        0.0715
     10 C         140.3119  142.3888  167.7234 C.ar    1  UNL1        0.0083
     11 C         138.8319  138.5937  165.8113 C.3     1  UNL1        0.4186
     12 F         138.3385  137.3286  165.1739 F       1  UNL1       -0.1659
     13 F         140.1541  138.4245  165.1235 F       1  UNL1       -0.1659
     14 F         137.5096  138.7628  166.4991 F       1  UNL1       -0.1659
     15 C         140.3226  141.2165  170.0419 C.3     1  UNL1        0.4186
     16 F         140.5746  141.2629  171.5199 F       1  UNL1       -0.1659
     17 F         141.7948  141.0683  169.7956 F       1  UNL1       -0.1659
     18 F         138.8504  141.3648  170.2883 F       1  UNL1       -0.1659
     19 C         141.8679  144.9746  163.8890 C.3     1  UNL1        0.0897
     20 N         140.7787  144.9484  159.5229 N.3     1  UNL1       -0.2727
     21 C         139.9973  145.7923  160.4857 C.3     1  UNL1        0.0721
     22 C         140.3604  145.8011  161.9411 C.3     1  UNL1        0.0191
     23 C         141.5048  144.9659  162.4336 C.3     1  UNL1        0.0224
     24 C         142.2862  144.1219  161.4707 C.3     1  UNL1        0.0191
     25 C         141.9231  144.1132  160.0154 C.3     1  UNL1        0.0721
     26 C         140.4156  144.9396  158.0675 C.3     1  UNL1        0.0721
     27 C         140.0178  146.2153  157.3861 C.3     1  UNL1        0.0173
     28 C         139.0517  147.2321  155.7946 C.3     1  UNL1        0.0000
     29 C         140.2946  146.4023  155.9237 C.3     1  UNL1        0.0013
     30 C         141.5375  145.5726  156.0528 C.3     1  UNL1        0.0000
     31 C         140.5713  146.5894  154.4614 C.3     1  UNL1        0.0000
@<TRIPOS>BOND
     1    28    29    1
     2    29    30    1
     3    29    31    1
     4    29    27    1
     5    27    26    1
     6    26    20    1
     7    20    21    1
     8    21    22    1
     9    22    23    1
    10    23    19    1
    11    19     1    1
    12     1     2   am
    13     2     3    2
    14     2     5    1
    15     5     6   ar
    16     6     7   ar
    17     7    11    1
    18    11    12    1
    19    11    13    1
    20    11    14    1
    21     7     8   ar
    22     8     9   ar
    23     9    15    1
    24    15    16    1
    25    15    17    1
    26    15    18    1
    27     9    10   ar
    28    23    24    1
    29    24    25    1
    30    25    20    1
    31    10     5   ar
    32     1     4    1
@<TRIPOS>MOLECULE
*****
 31 32 0 0 0
SMALL
GASTEIGER

@<TRIPOS>ATOM
      1 N         141.5568  143.8454  164.8122 N.am    1  UNL1       -0.3009
      2 C         140.2191  143.5807  165.4369 C.2     1  UNL1        0.2458
      3 O         139.0812  144.5296  165.2032 O.2     1  UNL1       -0.2701
      4 H         142.3037  143.2226  164.9656 H       1  UNL1        0.1497
      5 C         140.0192  142.3668  166.2953 C.ar    1  UNL1        0.0533
      6 C         140.3407  142.4224  167.7594 C.ar    1  UNL1        0.0083
      7 C         140.1408  141.2086  168.6177 C.ar    1  UNL1        0.0715
      8 C         139.6195  139.9392  168.0120 C.ar    1  UNL1        0.0077
      9 C         139.2980  139.8837  166.5478 C.ar    1  UNL1        0.0715
     10 C         139.4979  141.0975  165.6895 C.ar    1  UNL1        0.0083
     11 C         140.4623  141.2642  170.0818 C.3     1  UNL1        0.4186
     12 F         140.7837  141.3197  171.5459 F       1  UNL1       -0.1659
     13 F         141.7229  140.4899  169.8344 F       1  UNL1       -0.1659
     14 F         139.2016  142.0384  170.3292 F       1  UNL1       -0.1659
     15 C         138.7767  138.6143  165.9421 C.3     1  UNL1        0.4186
     16 F         138.2554  137.3449  165.3363 F       1  UNL1       -0.1659
     17 F         140.1018  138.3876  165.2768 F       1  UNL1       -0.1659
     18 F         137.4516  138.8410  166.6074 F       1  UNL1       -0.1659
     19 C         141.7567  145.0592  163.9538 C.3     1  UNL1        0.0897
     20 N         140.7838  144.8951  159.5633 N.3     1  UNL1       -0.2727
     21 C         139.9981  145.7928  160.4726 C.3     1  UNL1        0.0721
     22 C         140.3224  145.8475  161.9361 C.3     1  UNL1        0.0191
     23 C         141.4324  145.0045  162.4903 C.3     1  UNL1        0.0224
     24 C         142.2181  144.1069  161.5811 C.3     1  UNL1        0.0191
     25 C         141.8938  144.0522  160.1176 C.3     1  UNL1        0.0721
     26 C         140.4595  144.8405  158.0998 C.3     1  UNL1        0.0721
     27 C         139.9979  146.0770  157.3872 C.3     1  UNL1        0.0173
     28 C         139.2170  147.2708  155.8172 C.3     1  UNL1        0.0000
     29 C         140.3350  146.2783  155.9395 C.3     1  UNL1        0.0013
     30 C         141.4531  145.2859  156.0619 C.3     1  UNL1        0.0000
     31 C         140.6722  146.4797  154.4918 C.3     1  UNL1        0.0000
@<TRIPOS>BOND
     1    28    29    1
     2    29    30    1
     3    29    31    1
     4    29    27    1
     5    27    26    1
     6    26    20    1
     7    20    21    1
     8    21    22    1
     9    22    23    1
    10    23    19    1
    11    19     1    1
    12     1     2   am
    13     2     3    2
    14     2     5    1
    15     5     6   ar
    16     6     7   ar
    17     7    11    1
    18    11    12    1
    19    11    13    1
    20    11    14    1
    21     7     8   ar
    22     8     9   ar
    23     9    15    1
    24    15    16    1
    25    15    17    1
    26    15    18    1
    27     9    10   ar
    28    23    24    1
    29    24    25    1
    30    25    20    1
    31    10     5   ar
    32     1     4    1
@<TRIPOS>MOLECULE
*****
 31 32 0 0 0
SMALL
GASTEIGER

@<TRIPOS>ATOM
      1 N         139.1896  144.0252  164.6688 N.am    1  UNL1       -0.3009
      2 C         140.3189  143.2081  165.2229 C.2     1  UNL1        0.2458
      3 O         141.7239  143.4609  164.7626 O.2     1  UNL1       -0.2701
      4 H         138.2674  143.8592  164.9710 H       1  UNL1        0.1497
      5 C         140.0431  142.1381  166.2374 C.ar    1  UNL1        0.0533
      6 C         139.4324  140.8370  165.8081 C.ar    1  UNL1        0.0083
      7 C         139.1566  139.7670  166.8226 C.ar    1  UNL1        0.0715
      8 C         139.4916  139.9981  168.2664 C.ar    1  UNL1        0.0077
      9 C         140.1024  141.2993  168.6956 C.ar    1  UNL1        0.0715
     10 C         140.3781  142.3692  167.6811 C.ar    1  UNL1        0.0083
     11 C         138.5459  138.4660  166.3934 C.3     1  UNL1        0.4186
     12 F         137.9352  137.1650  165.9641 F       1  UNL1       -0.1659
     13 F         137.3282  138.7662  167.2161 F       1  UNL1       -0.1659
     14 F         139.7637  138.1658  165.5706 F       1  UNL1       -0.1659
     15 C         140.4374  141.5304  170.1393 C.3     1  UNL1        0.4186
     16 F         140.7724  141.7615  171.5831 F       1  UNL1       -0.1659
     17 F         139.7642  142.8696  170.0812 F       1  UNL1       -0.1659
     18 F         141.1106  140.1912  170.1975 F       1  UNL1       -0.1659
     19 C         139.4653  145.0951  163.6544 C.3     1  UNL1        0.0897
     20 N         139.7066  144.0449  159.2853 N.3     1  UNL1       -0.2727
     21 C         139.0998  143.0767  160.2570 C.3     1  UNL1        0.0721
     22 C         139.0194  143.4267  161.7134 C.3     1  UNL1        0.0191
     23 C         139.5457  144.7451  162.1980 C.3     1  UNL1        0.0224
     24 C         140.1525  145.7133  161.2263 C.3     1  UNL1        0.0191
     25 C         140.2330  145.3632  159.7700 C.3     1  UNL1        0.0721
     26 C         139.7870  143.6948  157.8289 C.3     1  UNL1        0.0721
     27 C         139.8700  144.7827  156.7996 C.3     1  UNL1        0.0173
     28 C         139.0633  146.4537  155.7715 C.3     1  UNL1        0.0000
     29 C         138.7402  144.9903  155.8350 C.3     1  UNL1        0.0013
     30 C         138.4171  143.5269  155.8985 C.3     1  UNL1        0.0000
     31 C         137.6104  145.1979  154.8704 C.3     1  UNL1        0.0000
@<TRIPOS>BOND
     1    28    29    1
     2    29    30    1
     3    29    31    1
     4    29    27    1
     5    27    26    1
     6    26    20    1
     7    20    21    1
     8    21    22    1
     9    22    23    1
    10    23    19    1
    11    19     1    1
    12     1     2   am
    13     2     3    2
    14     2     5    1
    15     5     6   ar
    16     6     7   ar
    17     7    11    1
    18    11    12    1
    19    11    13    1
    20    11    14    1
    21     7     8   ar
    22     8     9   ar
    23     9    15    1
    24    15    16    1
    25    15    17    1
    26    15    18    1
    27     9    10   ar
    28    23    24    1
    29    24    25    1
    30    25    20    1
    31    10     5   ar
    32     1     4    1
@<TRIPOS>MOLECULE
*****
 31 32 0 0 0
SMALL
GASTEIGER

@<TRIPOS>ATOM
      1 N         144.2366  140.7953  164.5984 N.am    1  UNL1       -0.3009
      2 C         142.9760  141.5646  164.8613 C.2     1  UNL1        0.2458
      3 O         142.3654  142.3981  163.7740 O.2     1  UNL1       -0.2701
      4 H         144.6374  140.2482  165.3120 H       1  UNL1        0.1497
      5 C         142.3261  141.5003  166.2117 C.ar    1  UNL1        0.0533
      6 C         142.9353  142.2288  167.3727 C.ar    1  UNL1        0.0083
      7 C         142.2853  142.1645  168.7231 C.ar    1  UNL1        0.0715
      8 C         141.0261  141.3717  168.9124 C.ar    1  UNL1        0.0077
      9 C         140.4169  140.6432  167.7513 C.ar    1  UNL1        0.0715
     10 C         141.0668  140.7075  166.4010 C.ar    1  UNL1        0.0083
     11 C         142.8946  142.8930  169.8842 C.3     1  UNL1        0.4186
     12 F         143.5038  143.6215  171.0452 F       1  UNL1       -0.1659
     13 F         144.1261  142.0444  169.7704 F       1  UNL1       -0.1659
     14 F         141.6630  143.7417  169.9979 F       1  UNL1       -0.1659
     15 C         139.1576  139.8504  167.9405 C.3     1  UNL1        0.4186
     16 F         137.8984  139.0576  168.1298 F       1  UNL1       -0.1659
     17 F         139.3146  139.2727  166.5652 F       1  UNL1       -0.1659
     18 F         139.0006  140.4281  169.3159 F       1  UNL1       -0.1659
     19 C         144.8866  140.8595  163.2481 C.3     1  UNL1        0.0897
     20 N         143.1371  138.5616  159.7971 N.3     1  UNL1       -0.2727
     21 C         143.3206  137.8931  161.1273 C.3     1  UNL1        0.0721
     22 C         143.9038  138.6590  162.2776 C.3     1  UNL1        0.0191
     23 C         144.3034  140.0936  162.0978 C.3     1  UNL1        0.0224
     24 C         144.1198  140.7621  160.7676 C.3     1  UNL1        0.0191
     25 C         143.5366  139.9962  159.6173 C.3     1  UNL1        0.0721
     26 C         142.5539  137.7957  158.6468 C.3     1  UNL1        0.0721
     27 C         142.8683  138.2033  157.2380 C.3     1  UNL1        0.0173
     28 C         144.0746  138.3372  155.4982 C.3     1  UNL1        0.0000
     29 C         143.4729  137.2126  156.2877 C.3     1  UNL1        0.0013
     30 C         142.8712  136.0881  157.0773 C.3     1  UNL1        0.0000
     31 C         144.0775  136.2220  155.3375 C.3     1  UNL1        0.0000
@<TRIPOS>BOND
     1    28    29    1
     2    29    30    1
     3    29    31    1
     4    29    27    1
     5    27    26    1
     6    26    20    1
     7    20    21    1
     8    21    22    1
     9    22    23    1
    10    23    19    1
    11    19     1    1
    12     1     2   am
    13     2     3    2
    14     2     5    1
    15     5     6   ar
    16     6     7   ar
    17     7    11    1
    18    11    12    1
    19    11    13    1
    20    11    14    1
    21     7     8   ar
    22     8     9   ar
    23     9    15    1
    24    15    16    1
    25    15    17    1
    26    15    18    1
    27     9    10   ar
    28    23    24    1
    29    24    25    1
    30    25    20    1
    31    10     5   ar
    32     1     4    1
@<TRIPOS>MOLECULE
*****
 31 32 0 0 0
SMALL
GASTEIGER

@<TRIPOS>ATOM
      1 N         143.4705  140.8433  163.9278 N.am    1  UNL1       -0.3009
      2 C         143.2382  139.9216  165.0882 C.2     1  UNL1        0.2458
      3 O         144.0132  138.6419  165.1963 O.2     1  UNL1       -0.2701
      4 H         142.9618  141.6832  163.8568 H       1  UNL1        0.1497
      5 C         142.2308  140.2796  166.1404 C.ar    1  UNL1        0.0533
      6 C         142.5611  141.3158  167.1734 C.ar    1  UNL1        0.0083
      7 C         141.5537  141.6737  168.2256 C.ar    1  UNL1        0.0715
      8 C         140.2160  140.9955  168.2447 C.ar    1  UNL1        0.0077
      9 C         139.8856  139.9593  167.2116 C.ar    1  UNL1        0.0715
     10 C         140.8930  139.6013  166.1595 C.ar    1  UNL1        0.0083
     11 C         141.8841  142.7099  169.2586 C.3     1  UNL1        0.4186
     12 F         142.2145  143.7461  170.2916 F       1  UNL1       -0.1659
     13 F         143.2241  142.0703  169.4716 F       1  UNL1       -0.1659
     14 F         140.5442  143.3495  169.0456 F       1  UNL1       -0.1659
     15 C         138.5478  139.2810  167.2308 C.3     1  UNL1        0.4186
     16 F         137.2101  138.6028  167.2499 F       1  UNL1       -0.1659
     17 F         138.3758  139.6609  168.6716 F       1  UNL1       -0.1659
     18 F         138.7198  138.9011  165.7899 F       1  UNL1       -0.1659
     19 C         144.4778  140.4854  162.8756 C.3     1  UNL1        0.0897
     20 N         143.1316  138.5823  159.0265 N.3     1  UNL1       -0.2727
     21 C         143.4662  140.0440  159.0636 C.3     1  UNL1        0.0721
     22 C         143.9149  140.6784  160.3467 C.3     1  UNL1        0.0191
     23 C         144.0291  139.8510  161.5926 C.3     1  UNL1        0.0224
     24 C         143.6944  138.3893  161.5555 C.3     1  UNL1        0.0191
     25 C         143.2457  137.7550  160.2725 C.3     1  UNL1        0.0721
     26 C         142.6828  137.9479  157.7435 C.3     1  UNL1        0.0721
     27 C         142.9373  136.4902  157.4984 C.3     1  UNL1        0.0173
     28 C         143.2306  134.6897  156.4156 C.3     1  UNL1        0.0000
     29 C         142.1900  135.7701  156.4153 C.3     1  UNL1        0.0013
     30 C         141.1494  136.8504  156.4150 C.3     1  UNL1        0.0000
     31 C         141.4427  135.0500  155.3323 C.3     1  UNL1        0.0000
@<TRIPOS>BOND
     1    28    29    1
     2    29    30    1
     3    29    31    1
     4    29    27    1
     5    27    26    1
     6    26    20    1
     7    20    21    1
     8    21    22    1
     9    22    23    1
    10    23    19    1
    11    19     1    1
    12     1     2   am
    13     2     3    2
    14     2     5    1
    15     5     6   ar
    16     6     7   ar
    17     7    11    1
    18    11    12    1
    19    11    13    1
    20    11    14    1
    21     7     8   ar
    22     8     9   ar
    23     9    15    1
    24    15    16    1
    25    15    17    1
    26    15    18    1
    27     9    10   ar
    28    23    24    1
    29    24    25    1
    30    25    20    1
    31    10     5   ar
    32     1     4    1
@<TRIPOS>MOLECULE
*****
 31 32 0 0 0
SMALL
GASTEIGER

@<TRIPOS>ATOM
      1 N         139.6564  139.2736  158.9769 N.am    1  UNL1       -0.3009
      2 C         138.4079  139.8348  159.5904 C.2     1  UNL1        0.2458
      3 O         137.2283  140.1627  158.7237 O.2     1  UNL1       -0.2701
      4 H         140.4306  139.0584  159.5457 H       1  UNL1        0.1497
      5 C         138.3390  140.0680  161.0706 C.ar    1  UNL1        0.0533
      6 C         138.5691  138.9303  162.0206 C.ar    1  UNL1        0.0083
      7 C         138.5002  139.1636  163.5008 C.ar    1  UNL1        0.0715
      8 C         138.2012  140.5346  164.0309 C.ar    1  UNL1        0.0077
      9 C         137.9711  141.6723  163.0808 C.ar    1  UNL1        0.0715
     10 C         138.0400  141.4390  161.6006 C.ar    1  UNL1        0.0083
     11 C         138.7303  138.0259  164.4508 C.3     1  UNL1        0.4186
     12 F         138.9604  136.8882  165.4009 F       1  UNL1       -0.1659
     13 F         138.9045  137.0919  163.2902 F       1  UNL1       -0.1659
     14 F         138.5562  138.9599  165.6115 F       1  UNL1       -0.1659
     15 C         137.6721  143.0433  163.6108 C.3     1  UNL1        0.4186
     16 F         137.3730  144.4143  164.1409 F       1  UNL1       -0.1659
     17 F         137.8032  142.5294  165.0139 F       1  UNL1       -0.1659
     18 F         137.5409  143.5572  162.2077 F       1  UNL1       -0.1659
     19 C         139.7253  139.0404  157.4968 C.3     1  UNL1        0.0897
     20 N         142.0698  135.5588  155.8744 N.3     1  UNL1       -0.2727
     21 C         140.7079  135.8666  155.3262 C.3     1  UNL1        0.0721
     22 C         139.9264  137.0271  155.8670 C.3     1  UNL1        0.0191
     23 C         140.5068  137.8799  156.9560 C.3     1  UNL1        0.0224
     24 C         141.8686  137.5720  157.5042 C.3     1  UNL1        0.0191
     25 C         142.6501  136.4115  156.9634 C.3     1  UNL1        0.0721
     26 C         142.8512  134.3982  155.3336 C.3     1  UNL1        0.0721
     27 C         142.6926  133.0375  155.9443 C.3     1  UNL1        0.0173
     28 C         143.5007  131.5486  154.6675 C.3     1  UNL1        0.0000
     29 C         143.8652  132.1045  156.0122 C.3     1  UNL1        0.0013
     30 C         144.2296  132.6604  157.3569 C.3     1  UNL1        0.0000
     31 C         145.0378  131.1715  156.0801 C.3     1  UNL1        0.0000
@<TRIPOS>BOND
     1    28    29    1
     2    29    30    1
     3    29    31    1
     4    29    27    1
     5    27    26    1
     6    26    20    1
     7    20    21    1
     8    21    22    1
     9    22    23    1
    10    23    19    1
    11    19     1    1
    12     1     2   am
    13     2     3    2
    14     2     5    1
    15     5     6   ar
    16     6     7   ar
    17     7    11    1
    18    11    12    1
    19    11    13    1
    20    11    14    1
    21     7     8   ar
    22     8     9   ar
    23     9    15    1
    24    15    16    1
    25    15    17    1
    26    15    18    1
    27     9    10   ar
    28    23    24    1
    29    24    25    1
    30    25    20    1
    31    10     5   ar
    32     1     4    1
@<TRIPOS>MOLECULE
*****
 31 32 0 0 0
SMALL
GASTEIGER

@<TRIPOS>ATOM
      1 N         140.0874  143.6473  164.7771 N.am    1  UNL1       -0.3009
      2 C         139.5216  142.3398  165.2463 C.2     1  UNL1        0.2458
      3 O         138.1288  141.9422  164.8565 O.2     1  UNL1       -0.2701
      4 H         141.0016  143.9082  165.0329 H       1  UNL1        0.1497
      5 C         140.3486  141.4298  166.1054 C.ar    1  UNL1        0.0533
      6 C         139.9188  141.1296  167.5108 C.ar    1  UNL1        0.0083
      7 C         140.7459  140.2196  168.3699 C.ar    1  UNL1        0.0715
      8 C         142.0027  139.6098  167.8235 C.ar    1  UNL1        0.0077
      9 C         142.4325  139.9100  166.4181 C.ar    1  UNL1        0.0715
     10 C         141.6055  140.8200  165.5591 C.ar    1  UNL1        0.0083
     11 C         140.3160  139.9194  169.7753 C.3     1  UNL1        0.4186
     12 F         139.8862  139.6193  171.1806 F       1  UNL1       -0.1659
     13 F         141.5727  139.1294  169.9909 F       1  UNL1       -0.1659
     14 F         139.0594  140.7095  169.5597 F       1  UNL1       -0.1659
     15 C         143.6893  139.3002  165.8717 C.3     1  UNL1        0.4186
     16 F         144.9462  138.6904  165.3254 F       1  UNL1       -0.1659
     17 F         143.7763  140.3949  164.8499 F       1  UNL1       -0.1659
     18 F         143.6024  138.2055  166.8935 F       1  UNL1       -0.1659
     19 C         139.2605  144.5573  163.9180 C.3     1  UNL1        0.0897
     20 N         139.8999  144.6429  159.4645 N.3     1  UNL1       -0.2727
     21 C         139.3904  143.3964  160.1252 C.3     1  UNL1        0.0721
     22 C         139.1772  143.3679  161.6097 C.3     1  UNL1        0.0191
     23 C         139.4736  144.5858  162.4335 C.3     1  UNL1        0.0224
     24 C         139.9831  145.8323  161.7728 C.3     1  UNL1        0.0191
     25 C         140.1963  145.8609  160.2883 C.3     1  UNL1        0.0721
     26 C         140.1130  144.6715  157.9800 C.3     1  UNL1        0.0721
     27 C         140.8257  145.8295  157.3467 C.3     1  UNL1        0.0173
     28 C         141.4381  145.5468  155.3355 C.3     1  UNL1        0.0000
     29 C         140.3718  146.3528  156.0163 C.3     1  UNL1        0.0013
     30 C         139.3055  147.1587  156.6970 C.3     1  UNL1        0.0000
     31 C         139.9179  146.8761  154.6858 C.3     1  UNL1        0.0000
@<TRIPOS>BOND
     1    28    29    1
     2    29    30    1
     3    29    31    1
     4    29    27    1
     5    27    26    1
     6    26    20    1
     7    20    21    1
     8    21    22    1
     9    22    23    1
    10    23    19    1
    11    19     1    1
    12     1     2   am
    13     2     3    2
    14     2     5    1
    15     5     6   ar
    16     6     7   ar
    17     7    11    1
    18    11    12    1
    19    11    13    1
    20    11    14    1
    21     7     8   ar
    22     8     9   ar
    23     9    15    1
    24    15    16    1
    25    15    17    1
    26    15    18    1
    27     9    10   ar
    28    23    24    1
    29    24    25    1
    30    25    20    1
    31    10     5   ar
    32     1     4    1
@<TRIPOS>MOLECULE
*****
 31 32 0 0 0
SMALL
GASTEIGER

@<TRIPOS>ATOM
      1 N         142.5626  137.1938  158.7721 N.am    1  UNL1       -0.3009
      2 C         143.1962  138.4420  159.3110 C.2     1  UNL1        0.2458
      3 O         143.8066  139.4392  158.3713 O.2     1  UNL1       -0.2701
      4 H         142.1620  136.5393  159.3888 H       1  UNL1        0.1497
      5 C         143.2193  138.6931  160.7897 C.ar    1  UNL1        0.0533
      6 C         142.2700  137.9595  161.6899 C.ar    1  UNL1        0.0083
      7 C         142.2931  138.2106  163.1686 C.ar    1  UNL1        0.0715
      8 C         143.2656  139.1954  163.7470 C.ar    1  UNL1        0.0077
      9 C         144.2150  139.9290  162.8467 C.ar    1  UNL1        0.0715
     10 C         144.1918  139.6779  161.3680 C.ar    1  UNL1        0.0083
     11 C         141.3438  137.4770  164.0689 C.3     1  UNL1        0.4186
     12 F         140.3944  136.7434  164.9691 F       1  UNL1       -0.1659
     13 F         140.5578  137.0268  162.8732 F       1  UNL1       -0.1659
     14 F         142.1297  137.9272  165.2645 F       1  UNL1       -0.1659
     15 C         145.1875  140.9138  163.4250 C.3     1  UNL1        0.4186
     16 F         146.1600  141.8985  164.0034 F       1  UNL1       -0.1659
     17 F         144.7915  141.9171  162.3826 F       1  UNL1       -0.1659
     18 F         145.5834  139.9105  164.4674 F       1  UNL1       -0.1659
     19 C         142.5395  136.9426  157.2934 C.3     1  UNL1        0.0897
     20 N         143.6030  132.8768  155.6848 N.3     1  UNL1       -0.2727
     21 C         143.9433  133.2356  157.1009 C.3     1  UNL1        0.0721
     22 C         143.5888  134.5909  157.6371 C.3     1  UNL1        0.0191
     23 C         142.8940  135.5873  156.7572 C.3     1  UNL1        0.0224
     24 C         142.5537  135.2285  155.3411 C.3     1  UNL1        0.0191
     25 C         142.9082  133.8732  154.8049 C.3     1  UNL1        0.0721
     26 C         143.9575  131.5215  155.1486 C.3     1  UNL1        0.0721
     27 C         144.6376  130.5192  156.0334 C.3     1  UNL1        0.0173
     28 C         144.6183  129.7935  158.0266 C.3     1  UNL1        0.0000
     29 C         143.8235  129.5093  156.7867 C.3     1  UNL1        0.0013
     30 C         143.0287  129.2251  155.5467 C.3     1  UNL1        0.0000
     31 C         143.0094  128.4994  157.5399 C.3     1  UNL1        0.0000
@<TRIPOS>BOND
     1    28    29    1
     2    29    30    1
     3    29    31    1
     4    29    27    1
     5    27    26    1
     6    26    20    1
     7    20    21    1
     8    21    22    1
     9    22    23    1
    10    23    19    1
    11    19     1    1
    12     1     2   am
    13     2     3    2
    14     2     5    1
    15     5     6   ar
    16     6     7   ar
    17     7    11    1
    18    11    12    1
    19    11    13    1
    20    11    14    1
    21     7     8   ar
    22     8     9   ar
    23     9    15    1
    24    15    16    1
    25    15    17    1
    26    15    18    1
    27     9    10   ar
    28    23    24    1
    29    24    25    1
    30    25    20    1
    31    10     5   ar
    32     1     4    1
@<TRIPOS>MOLECULE
*****
 31 32 0 0 0
SMALL
GASTEIGER

@<TRIPOS>ATOM
      1 N         142.4838  137.5087  158.8318 N.am    1  UNL1       -0.3009
      2 C         143.2977  138.6142  159.4363 C.2     1  UNL1        0.2458
      3 O         144.1351  139.4957  158.5578 O.2     1  UNL1       -0.2701
      4 H         141.9342  136.9302  159.4084 H       1  UNL1        0.1497
      5 C         143.2742  138.8382  160.9193 C.ar    1  UNL1        0.0533
      6 C         144.1681  139.8731  161.5358 C.ar    1  UNL1        0.0083
      7 C         144.1446  140.0971  163.0188 C.ar    1  UNL1        0.0715
      8 C         143.2272  139.2862  163.8854 C.ar    1  UNL1        0.0077
      9 C         142.3333  138.2513  163.2688 C.ar    1  UNL1        0.0715
     10 C         142.3568  138.0273  161.7859 C.ar    1  UNL1        0.0083
     11 C         145.0385  141.1319  163.6353 C.3     1  UNL1        0.4186
     12 F         145.9324  142.1667  164.2517 F       1  UNL1       -0.1659
     13 F         145.5584  141.4929  162.2754 F       1  UNL1       -0.1659
     14 F         144.5186  140.7709  164.9952 F       1  UNL1       -0.1659
     15 C         141.4159  137.4404  164.1354 C.3     1  UNL1        0.4186
     16 F         140.4985  136.6296  165.0019 F       1  UNL1       -0.1659
     17 F         142.2297  137.8077  165.3407 F       1  UNL1       -0.1659
     18 F         140.6021  137.0732  162.9300 F       1  UNL1       -0.1659
     19 C         142.5073  137.2847  157.3489 C.3     1  UNL1        0.0897
     20 N         143.5417  133.2264  155.7025 N.3     1  UNL1       -0.2727
     21 C         142.9272  134.2636  154.8099 C.3     1  UNL1        0.0721
     22 C         142.5824  135.6163  155.3587 C.3     1  UNL1        0.0191
     23 C         142.8521  135.9319  156.8001 C.3     1  UNL1        0.0224
     24 C         143.4665  134.8948  157.6926 C.3     1  UNL1        0.0191
     25 C         143.8113  133.5420  157.1439 C.3     1  UNL1        0.0721
     26 C         143.8865  131.8737  155.1537 C.3     1  UNL1        0.0721
     27 C         144.8716  131.0011  155.8734 C.3     1  UNL1        0.0173
     28 C         144.8009  129.1922  154.7677 C.3     1  UNL1        0.0000
     29 C         144.5212  129.5774  156.1901 C.3     1  UNL1        0.0013
     30 C         144.2415  129.9627  157.6126 C.3     1  UNL1        0.0000
     31 C         144.1708  128.1537  156.5068 C.3     1  UNL1        0.0000
@<TRIPOS>BOND
     1    28    29    1
     2    29    30    1
     3    29    31    1
     4    29    27    1
     5    27    26    1
     6    26    20    1
     7    20    21    1
     8    21    22    1
     9    22    23    1
    10    23    19    1
    11    19     1    1
    12     1     2   am
    13     2     3    2
    14     2     5    1
    15     5     6   ar
    16     6     7   ar
    17     7    11    1
    18    11    12    1
    19    11    13    1
    20    11    14    1
    21     7     8   ar
    22     8     9   ar
    23     9    15    1
    24    15    16    1
    25    15    17    1
    26    15    18    1
    27     9    10   ar
    28    23    24    1
    29    24    25    1
    30    25    20    1
    31    10     5   ar
    32     1     4    1
