@<TRIPOS>MOLECULE
*****
 30 32 0 0 0
SMALL
GASTEIGER

@<TRIPOS>ATOM
      1 C         139.2909  139.8257  164.0200 C.ar    1  UNL1        0.1525
      2 C         140.3332  140.7263  164.6137 C.ar    1  UNL1        0.1337
      3 N         140.4656  140.8399  166.1036 N.ar    1  UNL1       -0.2316
      4 C         139.5558  140.0530  166.9996 C.ar    1  UNL1        0.1420
      5 C         138.5136  139.1524  166.4058 C.ar    1  UNL1        0.1508
      6 N         137.6037  138.3654  167.3019 N.pl3   1  UNL1       -0.3410
      7 N         138.3811  139.0387  164.9160 N.ar    1  UNL1       -0.2128
      8 H         137.6906  138.4399  168.2797 H       1  UNL1        0.1438
      9 H         136.9196  137.7743  166.9121 H       1  UNL1        0.1438
     10 C         139.5598  138.8148  158.3854 C.3     1  UNL1        0.0157
     11 C         138.8936  139.4848  159.5505 C.3     1  UNL1        0.0422
     12 N         138.0244  139.9806  158.4330 N.3     1  UNL1       -0.3231
     13 C         137.9255  140.3269  160.3275 C.3     1  UNL1        0.0357
     14 C         138.0580  140.4405  161.8173 C.3     1  UNL1        0.0935
     15 N         139.1585  139.7121  162.5302 N.pl3   1  UNL1       -0.2919
     16 C         140.1265  138.8700  161.7532 C.3     1  UNL1        0.0935
     17 C         139.9941  138.7563  160.2634 C.3     1  UNL1        0.0357
     18 H         137.2954  140.5851  158.8118 H       1  UNL1        0.1188
     19 H         137.5949  139.1865  157.9584 H       1  UNL1        0.1188
     20 S         139.6883  140.1666  168.4894 S.3     1  UNL1       -0.0638
     21 C         140.6103  141.1891  169.0846 C.ar    1  UNL1        0.0526
     22 C         140.1073  142.5711  169.3799 C.ar    1  UNL1        0.0096
     23 C         141.0294  143.5936  169.9750 C.ar    1  UNL1        0.0212
     24 C         142.4545  143.2341  170.2749 C.ar    1  UNL1        0.0988
     25 N         142.9575  141.8522  169.9797 N.ar    1  UNL1       -0.2394
     26 C         142.0354  140.8297  169.3845 C.ar    1  UNL1        0.1586
     27 C         142.5384  139.4477  169.0892 C.3     1  UNL1        0.4353
     28 F         143.0414  138.0658  168.7939 F       1  UNL1       -0.1644
     29 F         142.0211  138.9760  170.4157 F       1  UNL1       -0.1644
     30 F         143.0557  139.9195  167.7626 F       1  UNL1       -0.1644
@<TRIPOS>BOND
     1    10    11    1
     2    11    12    1
     3    11    13    1
     4    13    14    1
     5    14    15    1
     6    15     1    1
     7     1     2   ar
     8     2     3   ar
     9     3     4   ar
    10     4    20    1
    11    20    21    1
    12    21    22   ar
    13    22    23   ar
    14    23    24   ar
    15    24    25   ar
    16    25    26   ar
    17    26    27    1
    18    27    28    1
    19    27    29    1
    20    27    30    1
    21     4     5   ar
    22     5     6    1
    23     5     7   ar
    24    15    16    1
    25    16    17    1
    26    17    11    1
    27     7     1   ar
    28    26    21   ar
    29    12    18    1
    30    12    19    1
    31     6     8    1
    32     6     9    1
@<TRIPOS>MOLECULE
*****
 30 32 0 0 0
SMALL
GASTEIGER

@<TRIPOS>ATOM
      1 C         140.2040  142.0403  166.3655 C.ar    1  UNL1        0.1525
      2 C         139.9113  140.6281  165.9534 C.ar    1  UNL1        0.1337
      3 N         138.9985  140.3590  164.7939 N.ar    1  UNL1       -0.2316
      4 C         138.3785  141.5021  164.0464 C.ar    1  UNL1        0.1420
      5 C         138.6712  142.9143  164.4585 C.ar    1  UNL1        0.1508
      6 N         138.0512  144.0576  163.7110 N.pl3   1  UNL1       -0.3410
      7 N         139.5840  143.1834  165.6180 N.ar    1  UNL1       -0.2128
      8 H         137.4521  143.8810  162.9500 H       1  UNL1        0.1438
      9 H         138.2433  144.9845  163.9815 H       1  UNL1        0.1438
     10 C         144.3857  142.7067  170.2269 C.3     1  UNL1        0.0157
     11 C         142.9423  142.8476  169.8440 C.3     1  UNL1        0.0422
     12 N         142.8973  143.4008  171.2375 N.3     1  UNL1       -0.3231
     13 C         141.4832  143.1806  169.9450 C.3     1  UNL1        0.0357
     14 C         140.5705  142.9115  168.7855 C.3     1  UNL1        0.0935
     15 N         141.1168  142.3094  167.5250 N.pl3   1  UNL1       -0.2919
     16 C         142.5758  141.9764  167.4239 C.3     1  UNL1        0.0935
     17 C         143.4885  142.2455  168.5835 C.3     1  UNL1        0.0357
     18 H         141.9423  143.6805  171.4617 H       1  UNL1        0.1188
     19 H         143.5129  144.2116  171.3016 H       1  UNL1        0.1188
     20 S         137.4657  141.2330  162.8869 S.3     1  UNL1       -0.0638
     21 C         138.0270  141.1234  161.5003 C.ar    1  UNL1        0.0526
     22 C         138.1460  142.3467  160.6403 C.ar    1  UNL1        0.0096
     23 C         138.7073  142.2370  159.2537 C.ar    1  UNL1        0.0212
     24 C         139.1497  140.9041  158.7269 C.ar    1  UNL1        0.0988
     25 N         139.0308  139.6808  159.5867 N.ar    1  UNL1       -0.2394
     26 C         138.4695  139.7904  160.9735 C.ar    1  UNL1        0.1586
     27 C         138.3506  138.5671  161.8333 C.3     1  UNL1        0.4353
     28 F         138.2317  137.3438  162.6931 F       1  UNL1       -0.1644
     29 F         139.7818  138.7238  162.2541 F       1  UNL1       -0.1644
     30 F         136.9194  138.4104  161.4125 F       1  UNL1       -0.1644
@<TRIPOS>BOND
     1    10    11    1
     2    11    12    1
     3    11    13    1
     4    13    14    1
     5    14    15    1
     6    15     1    1
     7     1     2   ar
     8     2     3   ar
     9     3     4   ar
    10     4    20    1
    11    20    21    1
    12    21    22   ar
    13    22    23   ar
    14    23    24   ar
    15    24    25   ar
    16    25    26   ar
    17    26    27    1
    18    27    28    1
    19    27    29    1
    20    27    30    1
    21     4     5   ar
    22     5     6    1
    23     5     7   ar
    24    15    16    1
    25    16    17    1
    26    17    11    1
    27     7     1   ar
    28    26    21   ar
    29    12    18    1
    30    12    19    1
    31     6     8    1
    32     6     9    1
@<TRIPOS>MOLECULE
*****
 30 32 0 0 0
SMALL
GASTEIGER

@<TRIPOS>ATOM
      1 C         141.4520  142.4258  166.4205 C.ar    1  UNL1        0.1525
      2 C         142.2260  142.4654  165.1362 C.ar    1  UNL1        0.1337
      3 N         141.7659  143.3428  164.0100 N.ar    1  UNL1       -0.2316
      4 C         140.5318  144.1807  164.1680 C.ar    1  UNL1        0.1420
      5 C         139.7578  144.1411  165.4522 C.ar    1  UNL1        0.1508
      6 N         138.5237  144.9789  165.6103 N.pl3   1  UNL1       -0.3410
      7 N         140.2179  143.2636  166.5785 N.ar    1  UNL1       -0.2128
      8 H         138.2217  145.5548  164.8711 H       1  UNL1        0.1438
      9 H         138.0156  144.9529  166.4532 H       1  UNL1        0.1438
     10 C         142.8767  138.3438  170.1821 C.3     1  UNL1        0.0157
     11 C         142.8323  139.7935  169.7992 C.3     1  UNL1        0.0422
     12 N         143.4928  139.8988  171.1419 N.3     1  UNL1       -0.3231
     13 C         143.0172  141.2797  169.8826 C.3     1  UNL1        0.0357
     14 C         142.5572  142.1571  168.7564 C.3     1  UNL1        0.0935
     15 N         141.9121  141.5484  167.5467 N.pl3   1  UNL1       -0.2919
     16 C         141.7271  140.0622  167.4633 C.3     1  UNL1        0.0935
     17 C         142.1872  139.1848  168.5896 C.3     1  UNL1        0.0357
     18 H         143.6882  140.8783  171.3487 H       1  UNL1        0.1188
     19 H         144.3663  139.3723  171.1333 H       1  UNL1        0.1188
     20 S         140.0717  145.0581  163.0417 S.3     1  UNL1       -0.0638
     21 C         139.8143  144.4669  161.6874 C.ar    1  UNL1        0.0526
     22 C         140.5946  144.9460  160.4993 C.ar    1  UNL1        0.0096
     23 C         140.3372  144.3549  159.1450 C.ar    1  UNL1        0.0212
     24 C         139.2995  143.2846  158.9787 C.ar    1  UNL1        0.0988
     25 N         138.5192  142.8054  160.1668 N.ar    1  UNL1       -0.2394
     26 C         138.7766  143.3966  161.5212 C.ar    1  UNL1        0.1586
     27 C         137.9963  142.9175  162.7092 C.3     1  UNL1        0.4353
     28 F         137.2160  142.4384  163.8973 F       1  UNL1       -0.1644
     29 F         138.7872  141.6430  162.7147 F       1  UNL1       -0.1644
     30 F         137.2054  144.1920  162.7037 F       1  UNL1       -0.1644
@<TRIPOS>BOND
     1    10    11    1
     2    11    12    1
     3    11    13    1
     4    13    14    1
     5    14    15    1
     6    15     1    1
     7     1     2   ar
     8     2     3   ar
     9     3     4   ar
    10     4    20    1
    11    20    21    1
    12    21    22   ar
    13    22    23   ar
    14    23    24   ar
    15    24    25   ar
    16    25    26   ar
    17    26    27    1
    18    27    28    1
    19    27    29    1
    20    27    30    1
    21     4     5   ar
    22     5     6    1
    23     5     7   ar
    24    15    16    1
    25    16    17    1
    26    17    11    1
    27     7     1   ar
    28    26    21   ar
    29    12    18    1
    30    12    19    1
    31     6     8    1
    32     6     9    1
@<TRIPOS>MOLECULE
*****
 30 32 0 0 0
SMALL
GASTEIGER

@<TRIPOS>ATOM
      1 C         139.6991  141.9548  165.0687 C.ar    1  UNL1        0.1525
      2 C         140.5275  141.2021  164.0701 C.ar    1  UNL1        0.1337
      3 N         140.3882  141.4966  162.6059 N.ar    1  UNL1       -0.2316
      4 C         139.4203  142.5437  162.1403 C.ar    1  UNL1        0.1420
      5 C         138.5919  143.2963  163.1388 C.ar    1  UNL1        0.1508
      6 N         137.6239  144.3434  162.6732 N.pl3   1  UNL1       -0.3410
      7 N         138.7312  143.0018  164.6030 N.ar    1  UNL1       -0.2128
      8 H         137.5325  144.5367  161.7122 H       1  UNL1        0.1438
      9 H         137.0802  144.8374  163.3286 H       1  UNL1        0.1438
     10 C         140.5732  141.7327  170.7280 C.3     1  UNL1        0.0157
     11 C         140.1172  141.0714  169.4612 C.3     1  UNL1        0.0422
     12 N         139.8748  139.9588  170.4378 N.3     1  UNL1       -0.3231
     13 C         139.5771  140.0237  168.5336 C.3     1  UNL1        0.0357
     14 C         139.4377  140.3181  167.0694 C.3     1  UNL1        0.0935
     15 N         139.8385  141.6603  166.5328 N.pl3   1  UNL1       -0.2919
     16 C         140.3786  142.7080  167.4605 C.3     1  UNL1        0.0935
     17 C         140.5179  142.4135  168.9247 C.3     1  UNL1        0.0357
     18 H         139.4957  139.1503  169.9448 H       1  UNL1        0.1188
     19 H         139.2096  140.2676  171.1466 H       1  UNL1        0.1188
     20 S         139.2809  142.8381  160.6761 S.3     1  UNL1       -0.0638
     21 C         140.4982  143.1360  159.8518 C.ar    1  UNL1        0.0526
     22 C         141.0756  142.0790  158.9576 C.ar    1  UNL1        0.0096
     23 C         142.2928  142.3768  158.1333 C.ar    1  UNL1        0.0212
     24 C         142.9328  143.7317  158.2031 C.ar    1  UNL1        0.0988
     25 N         142.3554  144.7887  159.0971 N.ar    1  UNL1       -0.2394
     26 C         141.1381  144.4908  159.9215 C.ar    1  UNL1        0.1586
     27 C         140.5608  145.5479  160.8156 C.3     1  UNL1        0.4353
     28 F         139.9835  146.6049  161.7096 F       1  UNL1       -0.1644
     29 F         141.4235  145.0649  161.9436 F       1  UNL1       -0.1644
     30 F         139.6981  146.0308  159.6875 F       1  UNL1       -0.1644
@<TRIPOS>BOND
     1    10    11    1
     2    11    12    1
     3    11    13    1
     4    13    14    1
     5    14    15    1
     6    15     1    1
     7     1     2   ar
     8     2     3   ar
     9     3     4   ar
    10     4    20    1
    11    20    21    1
    12    21    22   ar
    13    22    23   ar
    14    23    24   ar
    15    24    25   ar
    16    25    26   ar
    17    26    27    1
    18    27    28    1
    19    27    29    1
    20    27    30    1
    21     4     5   ar
    22     5     6    1
    23     5     7   ar
    24    15    16    1
    25    16    17    1
    26    17    11    1
    27     7     1   ar
    28    26    21   ar
    29    12    18    1
    30    12    19    1
    31     6     8    1
    32     6     9    1
@<TRIPOS>MOLECULE
*****
 30 32 0 0 0
SMALL
GASTEIGER

@<TRIPOS>ATOM
      1 C         141.7048  139.7457  166.6257 C.ar    1  UNL1        0.1525
      2 C         142.8382  139.5228  165.6688 C.ar    1  UNL1        0.1337
      3 N         142.6149  138.7348  164.4121 N.ar    1  UNL1       -0.2316
      4 C         141.2582  138.1696  164.1124 C.ar    1  UNL1        0.1420
      5 C         140.1248  138.3924  165.0694 C.ar    1  UNL1        0.1508
      6 N         138.7681  137.8272  164.7697 N.pl3   1  UNL1       -0.3410
      7 N         140.3482  139.1805  166.3260 N.ar    1  UNL1       -0.2128
      8 H         138.6215  137.3100  163.9449 H       1  UNL1        0.1438
      9 H         138.0242  137.9734  165.3978 H       1  UNL1        0.1438
     10 C         143.1193  143.3203  170.8758 C.3     1  UNL1        0.0157
     11 C         142.3748  142.1098  170.3956 C.3     1  UNL1        0.0422
     12 N         141.9725  142.1067  171.8407 N.3     1  UNL1       -0.3231
     13 C         141.4907  140.8983  170.4172 C.3     1  UNL1        0.0357
     14 C         141.2673  140.1102  169.1606 C.3     1  UNL1        0.0935
     15 N         141.9282  140.5337  167.8823 N.pl3   1  UNL1       -0.2919
     16 C         142.8123  141.7452  167.8607 C.3     1  UNL1        0.0935
     17 C         143.0356  142.5332  169.1173 C.3     1  UNL1        0.0357
     18 H         141.3512  141.3176  172.0189 H       1  UNL1        0.1188
     19 H         141.4884  142.9771  172.0607 H       1  UNL1        0.1188
     20 S         141.0349  137.3815  162.8558 S.3     1  UNL1       -0.0638
     21 C         140.6262  138.0820  161.5939 C.ar    1  UNL1        0.0526
     22 C         139.1774  138.3667  161.3296 C.ar    1  UNL1        0.0096
     23 C         138.7687  139.0671  160.0677 C.ar    1  UNL1        0.0212
     24 C         139.8089  139.4829  159.0701 C.ar    1  UNL1        0.0988
     25 N         141.2577  139.1982  159.3344 N.ar    1  UNL1       -0.2394
     26 C         141.6664  138.4977  160.5963 C.ar    1  UNL1        0.1586
     27 C         143.1152  138.2131  160.8606 C.3     1  UNL1        0.4353
     28 F         144.5640  137.9284  161.1248 F       1  UNL1       -0.1644
     29 F         143.2554  139.5481  161.5298 F       1  UNL1       -0.1644
     30 F         142.9750  136.8780  160.1913 F       1  UNL1       -0.1644
@<TRIPOS>BOND
     1    10    11    1
     2    11    12    1
     3    11    13    1
     4    13    14    1
     5    14    15    1
     6    15     1    1
     7     1     2   ar
     8     2     3   ar
     9     3     4   ar
    10     4    20    1
    11    20    21    1
    12    21    22   ar
    13    22    23   ar
    14    23    24   ar
    15    24    25   ar
    16    25    26   ar
    17    26    27    1
    18    27    28    1
    19    27    29    1
    20    27    30    1
    21     4     5   ar
    22     5     6    1
    23     5     7   ar
    24    15    16    1
    25    16    17    1
    26    17    11    1
    27     7     1   ar
    28    26    21   ar
    29    12    18    1
    30    12    19    1
    31     6     8    1
    32     6     9    1
@<TRIPOS>MOLECULE
*****
 30 32 0 0 0
SMALL
GASTEIGER

@<TRIPOS>ATOM
      1 C         141.5016  143.7406  161.9222 C.ar    1  UNL1        0.1525
      2 C         142.2391  142.6068  162.5706 C.ar    1  UNL1        0.1337
      3 N         141.9661  142.2564  164.0033 N.ar    1  UNL1       -0.2316
      4 C         140.9557  143.0398  164.7876 C.ar    1  UNL1        0.1420
      5 C         140.2182  144.1736  164.1392 C.ar    1  UNL1        0.1508
      6 N         139.2076  144.9571  164.9235 N.pl3   1  UNL1       -0.3410
      7 N         140.4911  144.5240  162.7064 N.ar    1  UNL1       -0.2128
      8 H         139.0285  144.7272  165.8638 H       1  UNL1        0.1438
      9 H         138.7236  145.7013  164.4979 H       1  UNL1        0.1438
     10 C         141.8857  145.7759  156.5788 C.3     1  UNL1        0.0157
     11 C         142.3204  144.7917  157.6239 C.3     1  UNL1        0.0422
     12 N         143.1734  144.3443  156.4740 N.3     1  UNL1       -0.3231
     13 C         143.0514  143.6522  158.2697 C.3     1  UNL1        0.0357
     14 C         142.7784  143.3018  159.7025 C.3     1  UNL1        0.0935
     15 N         141.7745  144.0910  160.4894 N.pl3   1  UNL1       -0.2919
     16 C         141.0436  145.2305  159.8436 C.3     1  UNL1        0.0935
     17 C         141.3165  145.5809  158.4109 C.3     1  UNL1        0.0357
     18 H         143.7462  143.5517  156.7637 H       1  UNL1        0.1188
     19 H         143.7781  145.1116  156.1806 H       1  UNL1        0.1188
     20 S         140.6827  142.6895  166.2204 S.3     1  UNL1       -0.0638
     21 C         139.8710  141.4729  166.5534 C.ar    1  UNL1        0.0526
     22 C         138.9726  140.8641  165.5178 C.ar    1  UNL1        0.0096
     23 C         138.1608  139.6475  165.8509 C.ar    1  UNL1        0.0212
     24 C         138.2474  139.0397  167.2195 C.ar    1  UNL1        0.0988
     25 N         139.1457  139.6484  168.2550 N.ar    1  UNL1       -0.2394
     26 C         139.9575  140.8651  167.9220 C.ar    1  UNL1        0.1586
     27 C         140.8559  141.4738  168.9575 C.3     1  UNL1        0.4353
     28 F         141.7542  142.0825  169.9931 F       1  UNL1       -0.1644
     29 F         141.9851  140.6048  168.4888 F       1  UNL1       -0.1644
     30 F         139.7267  142.3428  169.4263 F       1  UNL1       -0.1644
@<TRIPOS>BOND
     1    10    11    1
     2    11    12    1
     3    11    13    1
     4    13    14    1
     5    14    15    1
     6    15     1    1
     7     1     2   ar
     8     2     3   ar
     9     3     4   ar
    10     4    20    1
    11    20    21    1
    12    21    22   ar
    13    22    23   ar
    14    23    24   ar
    15    24    25   ar
    16    25    26   ar
    17    26    27    1
    18    27    28    1
    19    27    29    1
    20    27    30    1
    21     4     5   ar
    22     5     6    1
    23     5     7   ar
    24    15    16    1
    25    16    17    1
    26    17    11    1
    27     7     1   ar
    28    26    21   ar
    29    12    18    1
    30    12    19    1
    31     6     8    1
    32     6     9    1
@<TRIPOS>MOLECULE
*****
 30 32 0 0 0
SMALL
GASTEIGER

@<TRIPOS>ATOM
      1 C         143.1240  139.8019  163.8128 C.ar    1  UNL1        0.1525
      2 C         142.2799  140.8411  164.4890 C.ar    1  UNL1        0.1337
      3 N         142.0812  140.7952  165.9751 N.ar    1  UNL1       -0.2316
      4 C         142.7267  139.7101  166.7849 C.ar    1  UNL1        0.1420
      5 C         143.5708  138.6709  166.1087 C.ar    1  UNL1        0.1508
      6 N         144.2163  137.5857  166.9185 N.pl3   1  UNL1       -0.3410
      7 N         143.7695  138.7168  164.6226 N.ar    1  UNL1       -0.2128
      8 H         144.0860  137.5556  167.8938 H       1  UNL1        0.1438
      9 H         144.7704  136.9036  166.4746 H       1  UNL1        0.1438
     10 C         144.0632  140.9182  158.2708 C.3     1  UNL1        0.0157
     11 C         143.7200  139.9395  159.3545 C.3     1  UNL1        0.0422
     12 N         143.6811  139.0312  158.1614 N.3     1  UNL1       -0.3231
     13 C         143.3633  138.6455  160.0239 C.3     1  UNL1        0.0357
     14 C         143.1646  138.5996  161.5100 C.3     1  UNL1        0.0935
     15 N         143.3227  139.8477  162.3267 N.pl3   1  UNL1       -0.2919
     16 C         143.6794  141.1418  161.6573 C.3     1  UNL1        0.0935
     17 C         143.8780  141.1877  160.1712 C.3     1  UNL1        0.0357
     18 H         143.4445  138.0855  158.4616 H       1  UNL1        0.1188
     19 H         144.5951  139.0254  157.7086 H       1  UNL1        0.1188
     20 S         142.5280  139.6642  168.2710 S.3     1  UNL1       -0.0638
     21 C         142.2583  140.9289  169.0310 C.ar    1  UNL1        0.0526
     22 C         143.3988  141.8025  169.4624 C.ar    1  UNL1        0.0096
     23 C         143.1291  143.0673  170.2224 C.ar    1  UNL1        0.0212
     24 C         141.7188  143.4585  170.5511 C.ar    1  UNL1        0.0988
     25 N         140.5782  142.5849  170.1198 N.ar    1  UNL1       -0.2394
     26 C         140.8480  141.3201  169.3597 C.ar    1  UNL1        0.1586
     27 C         139.7074  140.4466  168.9284 C.3     1  UNL1        0.4353
     28 F         138.5669  139.5731  168.4971 F       1  UNL1       -0.1644
     29 F         139.8111  139.6774  170.2119 F       1  UNL1       -0.1644
     30 F         139.6037  141.2158  167.6449 F       1  UNL1       -0.1644
@<TRIPOS>BOND
     1    10    11    1
     2    11    12    1
     3    11    13    1
     4    13    14    1
     5    14    15    1
     6    15     1    1
     7     1     2   ar
     8     2     3   ar
     9     3     4   ar
    10     4    20    1
    11    20    21    1
    12    21    22   ar
    13    22    23   ar
    14    23    24   ar
    15    24    25   ar
    16    25    26   ar
    17    26    27    1
    18    27    28    1
    19    27    29    1
    20    27    30    1
    21     4     5   ar
    22     5     6    1
    23     5     7   ar
    24    15    16    1
    25    16    17    1
    26    17    11    1
    27     7     1   ar
    28    26    21   ar
    29    12    18    1
    30    12    19    1
    31     6     8    1
    32     6     9    1
@<TRIPOS>MOLECULE
*****
 30 32 0 0 0
SMALL
GASTEIGER

@<TRIPOS>ATOM
      1 C         142.8226  141.8952  164.9673 C.ar    1  UNL1        0.1525
      2 C         142.3766  140.9552  163.8868 C.ar    1  UNL1        0.1337
      3 N         142.3669  141.4070  162.4565 N.ar    1  UNL1       -0.2316
      4 C         142.8031  142.7988  162.1067 C.ar    1  UNL1        0.1420
      5 C         143.2491  143.7389  163.1871 C.ar    1  UNL1        0.1508
      6 N         143.6853  145.1308  162.8373 N.pl3   1  UNL1       -0.3410
      7 N         143.2588  143.2870  164.6174 N.ar    1  UNL1       -0.2128
      8 H         143.6790  145.4273  161.8985 H       1  UNL1        0.1438
      9 H         143.9780  145.7478  163.5465 H       1  UNL1        0.1438
     10 C         142.6105  139.3049  170.0749 C.3     1  UNL1        0.0157
     11 C         142.8518  140.5398  169.2582 C.3     1  UNL1        0.0422
     12 N         143.1081  141.0824  170.6330 N.3     1  UNL1       -0.3231
     13 C         143.1821  141.9631  168.9190 C.3     1  UNL1        0.0357
     14 C         143.1724  142.4149  167.4887 C.3     1  UNL1        0.0935
     15 N         142.8323  141.4434  166.3976 N.pl3   1  UNL1       -0.2919
     16 C         142.5020  140.0201  166.7368 C.3     1  UNL1        0.0935
     17 C         142.5117  139.5683  168.1671 C.3     1  UNL1        0.0357
     18 H         143.3522  142.0707  170.5684 H       1  UNL1        0.1188
     19 H         143.8777  140.5695  171.0630 H       1  UNL1        0.1188
     20 S         142.7934  143.2506  160.6764 S.3     1  UNL1       -0.0638
     21 C         141.5949  142.9856  159.8143 C.ar    1  UNL1        0.0526
     22 C         141.5911  141.8170  158.8737 C.ar    1  UNL1        0.0096
     23 C         140.3926  141.5520  158.0116 C.ar    1  UNL1        0.0212
     24 C         139.1978  142.4555  158.0900 C.ar    1  UNL1        0.0988
     25 N         139.2015  143.6240  159.0305 N.ar    1  UNL1       -0.2394
     26 C         140.4001  143.8891  159.8926 C.ar    1  UNL1        0.1586
     27 C         140.4038  145.0576  160.8331 C.3     1  UNL1        0.4353
     28 F         140.4075  146.2262  161.7735 F       1  UNL1       -0.1644
     29 F         139.7519  144.2119  161.8865 F       1  UNL1       -0.1644
     30 F         141.0557  145.9034  159.7797 F       1  UNL1       -0.1644
@<TRIPOS>BOND
     1    10    11    1
     2    11    12    1
     3    11    13    1
     4    13    14    1
     5    14    15    1
     6    15     1    1
     7     1     2   ar
     8     2     3   ar
     9     3     4   ar
    10     4    20    1
    11    20    21    1
    12    21    22   ar
    13    22    23   ar
    14    23    24   ar
    15    24    25   ar
    16    25    26   ar
    17    26    27    1
    18    27    28    1
    19    27    29    1
    20    27    30    1
    21     4     5   ar
    22     5     6    1
    23     5     7   ar
    24    15    16    1
    25    16    17    1
    26    17    11    1
    27     7     1   ar
    28    26    21   ar
    29    12    18    1
    30    12    19    1
    31     6     8    1
    32     6     9    1
@<TRIPOS>MOLECULE
*****
 30 32 0 0 0
SMALL
GASTEIGER

@<TRIPOS>ATOM
      1 C         140.6957  144.7848  159.6009 C.ar    1  UNL1        0.1525
      2 C         142.0371  144.1351  159.7697 C.ar    1  UNL1        0.1337
      3 N         142.6538  144.0309  161.1331 N.ar    1  UNL1       -0.2316
      4 C         141.9291  144.5764  162.3277 C.ar    1  UNL1        0.1420
      5 C         140.5877  145.2262  162.1590 C.ar    1  UNL1        0.1508
      6 N         139.8630  145.7717  163.3536 N.pl3   1  UNL1       -0.3410
      7 N         139.9710  145.3304  160.7956 N.ar    1  UNL1       -0.2128
      8 H         140.2677  145.7033  164.2485 H       1  UNL1        0.1438
      9 H         138.9826  146.1982  163.2429 H       1  UNL1        0.1438
     10 C         138.1012  144.2538  154.5188 C.3     1  UNL1        0.0157
     11 C         138.8456  145.0975  155.5108 C.3     1  UNL1        0.0422
     12 N         138.6453  146.1008  154.4139 N.3     1  UNL1       -0.3231
     13 C         139.5205  146.2896  156.1218 C.3     1  UNL1        0.0357
     14 C         140.1372  146.1854  157.4852 C.3     1  UNL1        0.0935
     15 N         140.0790  144.8890  158.2376 N.pl3   1  UNL1       -0.2919
     16 C         139.4042  143.6969  157.6265 C.3     1  UNL1        0.0935
     17 C         138.7875  143.8011  156.2631 C.3     1  UNL1        0.0357
     18 H         139.0618  146.9909  154.6870 H       1  UNL1        0.1188
     19 H         137.6469  146.2291  154.2486 H       1  UNL1        0.1188
     20 S         142.5458  144.4722  163.6911 S.3     1  UNL1       -0.0638
     21 C         142.2592  143.2798  164.5547 C.ar    1  UNL1        0.0526
     22 C         140.9846  143.2135  165.3429 C.ar    1  UNL1        0.0096
     23 C         140.6980  142.0210  166.2065 C.ar    1  UNL1        0.0212
     24 C         141.6859  140.8949  166.2821 C.ar    1  UNL1        0.0988
     25 N         142.9605  140.9611  165.4940 N.ar    1  UNL1       -0.2394
     26 C         143.2471  142.1536  164.6303 C.ar    1  UNL1        0.1586
     27 C         144.5217  142.2198  163.8422 C.3     1  UNL1        0.4353
     28 F         145.7962  142.2861  163.0542 F       1  UNL1       -0.1644
     29 F         145.1782  142.9646  164.9666 F       1  UNL1       -0.1644
     30 F         143.8651  141.4751  162.7179 F       1  UNL1       -0.1644
@<TRIPOS>BOND
     1    10    11    1
     2    11    12    1
     3    11    13    1
     4    13    14    1
     5    14    15    1
     6    15     1    1
     7     1     2   ar
     8     2     3   ar
     9     3     4   ar
    10     4    20    1
    11    20    21    1
    12    21    22   ar
    13    22    23   ar
    14    23    24   ar
    15    24    25   ar
    16    25    26   ar
    17    26    27    1
    18    27    28    1
    19    27    29    1
    20    27    30    1
    21     4     5   ar
    22     5     6    1
    23     5     7   ar
    24    15    16    1
    25    16    17    1
    26    17    11    1
    27     7     1   ar
    28    26    21   ar
    29    12    18    1
    30    12    19    1
    31     6     8    1
    32     6     9    1
