@<TRIPOS>MOLECULE
*****
 33 38 0 0 0
SMALL
GASTEIGER

@<TRIPOS>ATOM
      1 C         140.4219  143.0650  162.8332 C.ar    1  UNL1        0.1669
      2 N         139.0482  143.6261  163.0528 N.ar    1  UNL1       -0.1282
      3 N         138.3067  143.5596  161.7506 N.ar    1  UNL1       -0.1221
      4 C         139.2220  142.9574  160.7261 C.ar    1  UNL1        0.1932
      5 N         140.5294  142.6517  161.3952 N.ar    1  UNL1       -0.2884
      6 C         141.7328  142.0402  160.7412 C.3     1  UNL1        0.1340
      7 C         140.4419  139.9171  168.9438 C.3     1  UNL1        0.0521
      8 C         140.7062  140.6727  167.6753 C.ar    1  UNL1        0.0593
      9 C         139.6291  140.7984  166.6389 C.ar    1  UNL1        0.0147
     10 C         139.8934  141.5539  165.3703 C.ar    1  UNL1        0.0028
     11 C         141.2348  142.1838  165.1381 C.ar    1  UNL1        0.0206
     12 C         141.4990  142.9393  163.8695 C.ar    1  UNL1        0.0374
     13 C         142.8404  143.5691  163.6373 C.ar    1  UNL1        0.0031
     14 C         143.9176  143.4434  164.6736 C.ar    1  UNL1        0.0016
     15 C         143.6533  142.6879  165.9422 C.ar    1  UNL1        0.0191
     16 C         142.3118  142.0580  166.1744 C.ar    1  UNL1        0.0810
     17 N         142.0476  141.3025  167.4430 N.ar    1  UNL1       -0.2497
     18 S         138.8886  142.7052  159.2856 S.3     1  UNL1       -0.0756
     19 C         138.7163  141.2997  158.7907 C.3     1  UNL1        0.0666
     20 C         138.1878  140.2399  159.7112 C.3     1  UNL1        0.0294
     21 C         139.0100  139.0189  159.9996 C.3     1  UNL1        0.0730
     22 N         139.3056  138.6316  161.4183 N.3     1  UNL1       -0.2724
     23 C         138.3561  137.9588  162.3646 C.3     1  UNL1        0.0724
     24 C         139.0663  137.7605  163.6709 C.3     1  UNL1        0.0214
     25 C         140.0165  137.7002  164.8300 C.3     1  UNL1        0.0072
     26 C         140.4547  138.3107  163.5318 C.3     1  UNL1        0.0350
     27 C         140.6027  138.8491  162.1396 C.3     1  UNL1        0.0761
     28 C         141.8434  138.6559  163.9818 C.ar    1  UNL1       -0.0215
     29 C         142.3218  138.2247  165.3365 C.ar    1  UNL1       -0.0042
     30 C         143.7104  138.5699  165.7864 C.ar    1  UNL1       -0.0003
     31 C         144.6208  139.3462  164.8816 C.ar    1  UNL1       -0.0000
     32 C         144.1424  139.7773  163.5270 C.ar    1  UNL1       -0.0003
     33 C         142.7537  139.4322  163.0770 C.ar    1  UNL1       -0.0042
@<TRIPOS>BOND
     1     7     8    1
     2     8     9   ar
     3     9    10   ar
     4    10    11   ar
     5    11    12   ar
     6    12     1    1
     7     1     2   ar
     8     2     3   ar
     9     3     4   ar
    10     4    18    1
    11    18    19    1
    12    19    20    1
    13    20    21    1
    14    21    22    1
    15    22    23    1
    16    23    24    1
    17    24    25    1
    18    25    26    1
    19    26    28    1
    20    28    29   ar
    21    29    30   ar
    22    30    31   ar
    23    31    32   ar
    24    32    33   ar
    25    26    27    1
    26     4     5   ar
    27     5     6    1
    28    12    13   ar
    29    13    14   ar
    30    14    15   ar
    31    15    16   ar
    32    16    17   ar
    33    17     8   ar
    34    16    11   ar
    35     5     1   ar
    36    27    22    1
    37    26    24    1
    38    33    28   ar
@<TRIPOS>MOLECULE
*****
 33 38 0 0 0
SMALL
GASTEIGER

@<TRIPOS>ATOM
      1 C         138.6842  141.6808  162.9425 C.ar    1  UNL1        0.1669
      2 N         137.8983  142.9579  162.9030 N.ar    1  UNL1       -0.1282
      3 N         138.0489  143.5527  161.5342 N.ar    1  UNL1       -0.1221
      4 C         138.9278  142.6432  160.7277 C.ar    1  UNL1        0.1932
      5 N         139.3204  141.4863  161.5981 N.ar    1  UNL1       -0.2884
      6 C         140.1956  140.3367  161.1949 C.3     1  UNL1        0.1340
      7 C         140.9160  142.8378  169.3402 C.3     1  UNL1        0.0521
      8 C         140.3899  142.3183  168.0351 C.ar    1  UNL1        0.0593
      9 C         140.2626  143.2392  166.8579 C.ar    1  UNL1        0.0147
     10 C         139.7365  142.7197  165.5528 C.ar    1  UNL1        0.0028
     11 C         139.3376  141.2794  165.4248 C.ar    1  UNL1        0.0206
     12 C         138.8115  140.7599  164.1197 C.ar    1  UNL1        0.0374
     13 C         138.4126  139.3197  163.9918 C.ar    1  UNL1        0.0031
     14 C         138.5399  138.3987  165.1690 C.ar    1  UNL1        0.0016
     15 C         139.0660  138.9182  166.4741 C.ar    1  UNL1        0.0191
     16 C         139.4649  140.3586  166.6020 C.ar    1  UNL1        0.0810
     17 N         139.9910  140.8780  167.9071 N.ar    1  UNL1       -0.2497
     18 S         139.3414  142.8536  159.3013 S.3     1  UNL1       -0.0756
     19 C         140.6267  143.5613  158.9897 C.3     1  UNL1        0.0666
     20 C         141.7618  143.5205  159.9694 C.3     1  UNL1        0.0294
     21 C         141.7769  144.4592  161.1393 C.3     1  UNL1        0.0730
     22 N         142.4581  144.0581  162.4141 N.3     1  UNL1       -0.2724
     23 C         143.3116  144.9426  163.2737 C.3     1  UNL1        0.0724
     24 C         143.7864  144.1333  164.4440 C.3     1  UNL1        0.0214
     25 C         144.0962  143.0935  165.4798 C.3     1  UNL1        0.0072
     26 C         143.2262  142.7485  164.3076 C.3     1  UNL1        0.0350
     27 C         142.4053  142.7020  163.0531 C.3     1  UNL1        0.0761
     28 C         142.9915  141.3203  164.7015 C.ar    1  UNL1       -0.0215
     29 C         142.5439  140.3229  163.6745 C.ar    1  UNL1       -0.0042
     30 C         142.3092  138.8947  164.0684 C.ar    1  UNL1       -0.0003
     31 C         142.5221  138.4639  165.4894 C.ar    1  UNL1       -0.0000
     32 C         142.9697  139.4613  166.5164 C.ar    1  UNL1       -0.0003
     33 C         143.2044  140.8895  166.1225 C.ar    1  UNL1       -0.0042
@<TRIPOS>BOND
     1     7     8    1
     2     8     9   ar
     3     9    10   ar
     4    10    11   ar
     5    11    12   ar
     6    12     1    1
     7     1     2   ar
     8     2     3   ar
     9     3     4   ar
    10     4    18    1
    11    18    19    1
    12    19    20    1
    13    20    21    1
    14    21    22    1
    15    22    23    1
    16    23    24    1
    17    24    25    1
    18    25    26    1
    19    26    28    1
    20    28    29   ar
    21    29    30   ar
    22    30    31   ar
    23    31    32   ar
    24    32    33   ar
    25    26    27    1
    26     4     5   ar
    27     5     6    1
    28    12    13   ar
    29    13    14   ar
    30    14    15   ar
    31    15    16   ar
    32    16    17   ar
    33    17     8   ar
    34    16    11   ar
    35     5     1   ar
    36    27    22    1
    37    26    24    1
    38    33    28   ar
@<TRIPOS>MOLECULE
*****
 33 38 0 0 0
SMALL
GASTEIGER

@<TRIPOS>ATOM
      1 C         140.0523  142.8086  164.6697 C.ar    1  UNL1        0.1669
      2 N         141.2687  143.6031  165.0429 N.ar    1  UNL1       -0.1282
      3 N         141.3788  144.7571  164.0909 N.ar    1  UNL1       -0.1221
      4 C         140.2304  144.6758  163.1293 C.ar    1  UNL1        0.1932
      5 N         139.4106  143.4716  163.4870 N.ar    1  UNL1       -0.2884
      6 C         138.1674  143.0112  162.7853 C.3     1  UNL1        0.1340
      7 C         140.7663  140.6930  171.1708 C.3     1  UNL1        0.0521
      8 C         140.4656  140.9120  169.7176 C.ar    1  UNL1        0.0593
      9 C         140.9544  142.1517  169.0291 C.ar    1  UNL1        0.0147
     10 C         140.6537  142.3707  167.5760 C.ar    1  UNL1        0.0028
     11 C         139.8642  141.3499  166.8113 C.ar    1  UNL1        0.0206
     12 C         139.5636  141.5688  165.3582 C.ar    1  UNL1        0.0374
     13 C         138.7741  140.5481  164.5936 C.ar    1  UNL1        0.0031
     14 C         138.2852  139.3082  165.2821 C.ar    1  UNL1        0.0016
     15 C         138.5859  139.0893  166.7352 C.ar    1  UNL1        0.0191
     16 C         139.3755  140.1101  167.4999 C.ar    1  UNL1        0.0810
     17 N         139.6762  139.8912  168.9530 N.ar    1  UNL1       -0.2497
     18 S         139.9508  145.6310  162.0071 S.3     1  UNL1       -0.0756
     19 C         140.5540  145.3956  160.6540 C.3     1  UNL1        0.0666
     20 C         140.9373  144.0073  160.2351 C.3     1  UNL1        0.0294
     21 C         142.3820  143.6047  160.2060 C.3     1  UNL1        0.0730
     22 N         143.0420  143.0887  161.4503 N.3     1  UNL1       -0.2724
     23 C         144.2135  143.7116  162.1500 C.3     1  UNL1        0.0724
     24 C         144.5420  142.8671  163.3454 C.3     1  UNL1        0.0214
     25 C         144.6293  141.8479  164.4425 C.3     1  UNL1        0.0072
     26 C         143.5734  141.7224  163.3845 C.3     1  UNL1        0.0350
     27 C         142.6464  141.8593  162.2133 C.3     1  UNL1        0.0761
     28 C         142.9571  140.4668  163.9263 C.ar    1  UNL1       -0.0215
     29 C         142.1810  139.5598  163.0180 C.ar    1  UNL1       -0.0042
     30 C         141.5646  138.3042  163.5598 C.ar    1  UNL1       -0.0003
     31 C         141.7244  137.9555  165.0100 C.ar    1  UNL1       -0.0000
     32 C         142.5005  138.8625  165.9183 C.ar    1  UNL1       -0.0003
     33 C         143.1168  140.1181  165.3765 C.ar    1  UNL1       -0.0042
@<TRIPOS>BOND
     1     7     8    1
     2     8     9   ar
     3     9    10   ar
     4    10    11   ar
     5    11    12   ar
     6    12     1    1
     7     1     2   ar
     8     2     3   ar
     9     3     4   ar
    10     4    18    1
    11    18    19    1
    12    19    20    1
    13    20    21    1
    14    21    22    1
    15    22    23    1
    16    23    24    1
    17    24    25    1
    18    25    26    1
    19    26    28    1
    20    28    29   ar
    21    29    30   ar
    22    30    31   ar
    23    31    32   ar
    24    32    33   ar
    25    26    27    1
    26     4     5   ar
    27     5     6    1
    28    12    13   ar
    29    13    14   ar
    30    14    15   ar
    31    15    16   ar
    32    16    17   ar
    33    17     8   ar
    34    16    11   ar
    35     5     1   ar
    36    27    22    1
    37    26    24    1
    38    33    28   ar
@<TRIPOS>MOLECULE
*****
 33 38 0 0 0
SMALL
GASTEIGER

@<TRIPOS>ATOM
      1 C         139.8353  140.9949  160.9449 C.ar    1  UNL1        0.1669
      2 N         138.4350  141.2703  160.4827 N.ar    1  UNL1       -0.1282
      3 N         138.4384  142.5772  159.7465 N.ar    1  UNL1       -0.1221
      4 C         139.8408  143.1096  159.7535 C.ar    1  UNL1        0.1932
      5 N         140.7041  142.1317  160.4942 N.ar    1  UNL1       -0.2884
      6 C         142.1775  142.2668  160.7408 C.3     1  UNL1        0.1340
      7 C         137.8714  138.6040  167.0830 C.3     1  UNL1        0.0521
      8 C         138.4754  138.9014  165.7426 C.ar    1  UNL1        0.0593
      9 C         138.0233  140.1025  164.9661 C.ar    1  UNL1        0.0147
     10 C         138.6273  140.4000  163.6257 C.ar    1  UNL1        0.0028
     11 C         139.6834  139.4963  163.0617 C.ar    1  UNL1        0.0206
     12 C         140.2874  139.7938  161.7213 C.ar    1  UNL1        0.0374
     13 C         141.3434  138.8901  161.1573 C.ar    1  UNL1        0.0031
     14 C         141.7955  137.6889  161.9338 C.ar    1  UNL1        0.0016
     15 C         141.1915  137.3915  163.2742 C.ar    1  UNL1        0.0191
     16 C         140.1354  138.2952  163.8382 C.ar    1  UNL1        0.0810
     17 N         139.5314  137.9978  165.1786 N.ar    1  UNL1       -0.2497
     18 S         140.2993  144.3942  159.1295 S.3     1  UNL1       -0.0756
     19 C         140.3373  145.6525  159.9451 C.3     1  UNL1        0.0666
     20 C         140.5704  145.5802  161.4251 C.3     1  UNL1        0.0294
     21 C         139.4212  145.3199  162.3534 C.3     1  UNL1        0.0730
     22 N         139.6510  144.5952  163.6466 N.3     1  UNL1       -0.2724
     23 C         138.9757  144.8883  164.9535 C.3     1  UNL1        0.0724
     24 C         139.5036  143.9244  165.9744 C.3     1  UNL1        0.0214
     25 C         140.2033  142.8524  166.7563 C.3     1  UNL1        0.0072
     26 C         140.5052  143.0357  165.2984 C.3     1  UNL1        0.0350
     27 C         140.5962  143.4502  163.8597 C.3     1  UNL1        0.0761
     28 C         141.5136  141.9290  165.2068 C.ar    1  UNL1       -0.0215
     29 C         141.5698  140.8753  166.2729 C.ar    1  UNL1       -0.0042
     30 C         142.5781  139.7687  166.1813 C.ar    1  UNL1       -0.0003
     31 C         143.5304  139.7156  165.0235 C.ar    1  UNL1       -0.0000
     32 C         143.4742  140.7693  163.9574 C.ar    1  UNL1       -0.0003
     33 C         142.4658  141.8760  164.0490 C.ar    1  UNL1       -0.0042
@<TRIPOS>BOND
     1     7     8    1
     2     8     9   ar
     3     9    10   ar
     4    10    11   ar
     5    11    12   ar
     6    12     1    1
     7     1     2   ar
     8     2     3   ar
     9     3     4   ar
    10     4    18    1
    11    18    19    1
    12    19    20    1
    13    20    21    1
    14    21    22    1
    15    22    23    1
    16    23    24    1
    17    24    25    1
    18    25    26    1
    19    26    28    1
    20    28    29   ar
    21    29    30   ar
    22    30    31   ar
    23    31    32   ar
    24    32    33   ar
    25    26    27    1
    26     4     5   ar
    27     5     6    1
    28    12    13   ar
    29    13    14   ar
    30    14    15   ar
    31    15    16   ar
    32    16    17   ar
    33    17     8   ar
    34    16    11   ar
    35     5     1   ar
    36    27    22    1
    37    26    24    1
    38    33    28   ar
@<TRIPOS>MOLECULE
*****
 33 38 0 0 0
SMALL
GASTEIGER

@<TRIPOS>ATOM
      1 C         142.4169  140.9292  161.1793 C.ar    1  UNL1        0.1669
      2 N         141.5718  140.3203  160.0998 N.ar    1  UNL1       -0.1282
      3 N         141.4956  141.2973  158.9641 N.ar    1  UNL1       -0.1221
      4 C         142.2936  142.5101  159.3417 C.ar    1  UNL1        0.1932
      5 N         142.8629  142.2826  160.7108 N.ar    1  UNL1       -0.2884
      6 C         143.7267  143.2403  161.4767 C.3     1  UNL1        0.1340
      7 C         138.4251  139.1918  166.4988 C.3     1  UNL1        0.0521
      8 C         139.5079  139.4678  165.4981 C.ar    1  UNL1        0.0593
      9 C         139.1685  140.1011  164.1814 C.ar    1  UNL1        0.0147
     10 C         140.2513  140.3771  163.1807 C.ar    1  UNL1        0.0028
     11 C         141.6734  140.0199  163.4967 C.ar    1  UNL1        0.0206
     12 C         142.7562  140.2960  162.4960 C.ar    1  UNL1        0.0374
     13 C         144.1783  139.9388  162.8120 C.ar    1  UNL1        0.0031
     14 C         144.5178  139.3055  164.1288 C.ar    1  UNL1        0.0016
     15 C         143.4350  139.0295  165.1295 C.ar    1  UNL1        0.0191
     16 C         142.0128  139.3867  164.8134 C.ar    1  UNL1        0.0810
     17 N         140.9300  139.1107  165.8141 N.ar    1  UNL1       -0.2497
     18 S         142.4880  143.7352  158.4984 S.3     1  UNL1       -0.0756
     19 C         141.5382  144.8896  158.6224 C.3     1  UNL1        0.0666
     20 C         140.4588  144.8641  159.6636 C.3     1  UNL1        0.0294
     21 C         140.6774  145.5356  160.9870 C.3     1  UNL1        0.0730
     22 N         140.0918  144.9431  162.2345 N.3     1  UNL1       -0.2724
     23 C         138.6342  144.8879  162.5842 C.3     1  UNL1        0.0724
     24 C         138.5026  144.2125  163.9171 C.3     1  UNL1        0.0214
     25 C         138.6837  143.5183  165.2344 C.3     1  UNL1        0.0072
     26 C         139.8789  143.8503  164.3910 C.3     1  UNL1        0.0350
     27 C         140.8611  144.3018  163.3511 C.3     1  UNL1        0.0761
     28 C         140.8980  143.2784  165.3314 C.ar    1  UNL1       -0.0215
     29 C         140.4709  142.7467  166.6673 C.ar    1  UNL1       -0.0042
     30 C         141.4900  142.1748  167.6077 C.ar    1  UNL1       -0.0003
     31 C         142.9364  142.1347  167.2122 C.ar    1  UNL1       -0.0000
     32 C         143.3635  142.6664  165.8763 C.ar    1  UNL1       -0.0003
     33 C         142.3444  143.2383  164.9359 C.ar    1  UNL1       -0.0042
@<TRIPOS>BOND
     1     7     8    1
     2     8     9   ar
     3     9    10   ar
     4    10    11   ar
     5    11    12   ar
     6    12     1    1
     7     1     2   ar
     8     2     3   ar
     9     3     4   ar
    10     4    18    1
    11    18    19    1
    12    19    20    1
    13    20    21    1
    14    21    22    1
    15    22    23    1
    16    23    24    1
    17    24    25    1
    18    25    26    1
    19    26    28    1
    20    28    29   ar
    21    29    30   ar
    22    30    31   ar
    23    31    32   ar
    24    32    33   ar
    25    26    27    1
    26     4     5   ar
    27     5     6    1
    28    12    13   ar
    29    13    14   ar
    30    14    15   ar
    31    15    16   ar
    32    16    17   ar
    33    17     8   ar
    34    16    11   ar
    35     5     1   ar
    36    27    22    1
    37    26    24    1
    38    33    28   ar
@<TRIPOS>MOLECULE
*****
 33 38 0 0 0
SMALL
GASTEIGER

@<TRIPOS>ATOM
      1 C         140.2292  138.5328  163.8656 C.ar    1  UNL1        0.1669
      2 N         140.9813  137.2856  163.5061 N.ar    1  UNL1       -0.1282
      3 N         141.2354  137.3074  162.0280 N.ar    1  UNL1       -0.1221
      4 C         140.6405  138.5680  161.4738 C.ar    1  UNL1        0.1932
      5 N         140.0186  139.3253  162.6096 N.ar    1  UNL1       -0.2884
      6 C         139.3105  140.6437  162.5073 C.3     1  UNL1        0.1340
      7 C         143.2464  142.3624  168.7113 C.3     1  UNL1        0.0521
      8 C         142.3769  141.5017  167.8434 C.ar    1  UNL1        0.0593
      9 C         142.8375  141.1150  166.4692 C.ar    1  UNL1        0.0147
     10 C         141.9681  140.2543  165.6014 C.ar    1  UNL1        0.0028
     11 C         140.6381  139.7802  166.1077 C.ar    1  UNL1        0.0206
     12 C         139.7687  138.9194  165.2398 C.ar    1  UNL1        0.0374
     13 C         138.4387  138.4453  165.7461 C.ar    1  UNL1        0.0031
     14 C         137.9781  138.8319  167.1203 C.ar    1  UNL1        0.0016
     15 C         138.8475  139.6927  167.9882 C.ar    1  UNL1        0.0191
     16 C         140.1776  140.1668  167.4818 C.ar    1  UNL1        0.0810
     17 N         141.0470  141.0276  168.3497 N.ar    1  UNL1       -0.2497
     18 S         140.6634  138.9961  160.0364 S.3     1  UNL1       -0.0756
     19 C         141.6314  140.0482  159.5826 C.3     1  UNL1        0.0666
     20 C         142.9209  140.2500  160.3219 C.3     1  UNL1        0.0294
     21 C         143.6275  141.5711  160.2506 C.3     1  UNL1        0.0730
     22 N         143.4518  142.5761  161.3503 N.3     1  UNL1       -0.2724
     23 C         144.5299  143.4378  161.9376 C.3     1  UNL1        0.0724
     24 C         143.9116  144.2900  163.0061 C.3     1  UNL1        0.0214
     25 C         143.0293  144.9927  163.9949 C.3     1  UNL1        0.0072
     26 C         142.4513  143.9549  163.0790 C.3     1  UNL1        0.0350
     27 C         142.1671  142.8957  162.0556 C.3     1  UNL1        0.0761
     28 C         141.0458  144.0575  163.5928 C.ar    1  UNL1       -0.0215
     29 C         139.9520  144.5500  162.6923 C.ar    1  UNL1       -0.0042
     30 C         138.5466  144.6526  163.2062 C.ar    1  UNL1       -0.0003
     31 C         138.2348  144.2627  164.6207 C.ar    1  UNL1       -0.0000
     32 C         139.3286  143.7703  165.5212 C.ar    1  UNL1       -0.0003
     33 C         140.7341  143.6677  165.0074 C.ar    1  UNL1       -0.0042
@<TRIPOS>BOND
     1     7     8    1
     2     8     9   ar
     3     9    10   ar
     4    10    11   ar
     5    11    12   ar
     6    12     1    1
     7     1     2   ar
     8     2     3   ar
     9     3     4   ar
    10     4    18    1
    11    18    19    1
    12    19    20    1
    13    20    21    1
    14    21    22    1
    15    22    23    1
    16    23    24    1
    17    24    25    1
    18    25    26    1
    19    26    28    1
    20    28    29   ar
    21    29    30   ar
    22    30    31   ar
    23    31    32   ar
    24    32    33   ar
    25    26    27    1
    26     4     5   ar
    27     5     6    1
    28    12    13   ar
    29    13    14   ar
    30    14    15   ar
    31    15    16   ar
    32    16    17   ar
    33    17     8   ar
    34    16    11   ar
    35     5     1   ar
    36    27    22    1
    37    26    24    1
    38    33    28   ar
@<TRIPOS>MOLECULE
*****
 33 38 0 0 0
SMALL
GASTEIGER

@<TRIPOS>ATOM
      1 C         140.5298  138.4970  163.4733 C.ar    1  UNL1        0.1669
      2 N         139.3277  137.6002  163.4419 N.ar    1  UNL1       -0.1282
      3 N         138.7334  137.6697  162.0664 N.ar    1  UNL1       -0.1221
      4 C         139.5681  138.6094  161.2477 C.ar    1  UNL1        0.1932
      5 N         140.6784  139.1207  162.1172 N.ar    1  UNL1       -0.2884
      6 C         141.7491  140.0862  161.7033 C.3     1  UNL1        0.1340
      7 C         139.1011  140.5719  169.8689 C.3     1  UNL1        0.0521
      8 C         139.6823  140.1112  168.5651 C.ar    1  UNL1        0.0593
      9 C         138.7862  139.8790  167.3848 C.ar    1  UNL1        0.0147
     10 C         139.3674  139.4183  166.0810 C.ar    1  UNL1        0.0028
     11 C         140.8447  139.1899  165.9574 C.ar    1  UNL1        0.0206
     12 C         141.4259  138.7292  164.6535 C.ar    1  UNL1        0.0374
     13 C         142.9032  138.5008  164.5299 C.ar    1  UNL1        0.0031
     14 C         143.7994  138.7330  165.7102 C.ar    1  UNL1        0.0016
     15 C         143.2182  139.1937  167.0141 C.ar    1  UNL1        0.0191
     16 C         141.7408  139.4221  167.1376 C.ar    1  UNL1        0.0810
     17 N         141.1596  139.8828  168.4415 N.ar    1  UNL1       -0.2497
     18 S         139.3337  138.9739  159.8116 S.3     1  UNL1       -0.0756
     19 C         138.7230  140.2992  159.4643 C.3     1  UNL1        0.0666
     20 C         138.0520  141.1174  160.5274 C.3     1  UNL1        0.0294
     21 C         138.3849  142.5725  160.6758 C.3     1  UNL1        0.0730
     22 N         138.7048  143.1344  162.0293 N.3     1  UNL1       -0.2724
     23 C         137.7192  143.7220  162.9953 C.3     1  UNL1        0.0724
     24 C         138.4717  144.1582  164.2175 C.3     1  UNL1        0.0214
     25 C         139.4741  144.4858  165.2842 C.3     1  UNL1        0.0072
     26 C         139.9224  143.8401  164.0067 C.3     1  UNL1        0.0350
     27 C         140.0664  143.2074  162.6543 C.3     1  UNL1        0.0761
     28 C         141.3777  143.7780  164.3646 C.ar    1  UNL1       -0.0215
     29 C         142.3087  144.8628  163.9104 C.ar    1  UNL1       -0.0042
     30 C         143.7641  144.8008  164.2683 C.ar    1  UNL1       -0.0003
     31 C         144.2884  143.6539  165.0806 C.ar    1  UNL1       -0.0000
     32 C         143.3574  142.5691  165.5348 C.ar    1  UNL1       -0.0003
     33 C         141.9021  142.6312  165.1769 C.ar    1  UNL1       -0.0042
@<TRIPOS>BOND
     1     7     8    1
     2     8     9   ar
     3     9    10   ar
     4    10    11   ar
     5    11    12   ar
     6    12     1    1
     7     1     2   ar
     8     2     3   ar
     9     3     4   ar
    10     4    18    1
    11    18    19    1
    12    19    20    1
    13    20    21    1
    14    21    22    1
    15    22    23    1
    16    23    24    1
    17    24    25    1
    18    25    26    1
    19    26    28    1
    20    28    29   ar
    21    29    30   ar
    22    30    31   ar
    23    31    32   ar
    24    32    33   ar
    25    26    27    1
    26     4     5   ar
    27     5     6    1
    28    12    13   ar
    29    13    14   ar
    30    14    15   ar
    31    15    16   ar
    32    16    17   ar
    33    17     8   ar
    34    16    11   ar
    35     5     1   ar
    36    27    22    1
    37    26    24    1
    38    33    28   ar
@<TRIPOS>MOLECULE
*****
 33 38 0 0 0
SMALL
GASTEIGER

@<TRIPOS>ATOM
      1 C         143.4819  140.6612  162.5936 C.ar    1  UNL1        0.1669
      2 N         144.3171  139.4580  162.2696 N.ar    1  UNL1       -0.1282
      3 N         143.8085  138.8728  160.9855 N.ar    1  UNL1       -0.1221
      4 C         142.6589  139.7142  160.5159 C.ar    1  UNL1        0.1932
      5 N         142.4570  140.8195  161.5098 N.ar    1  UNL1       -0.2884
      6 C         141.4136  141.8943  161.4333 C.3     1  UNL1        0.1340
      7 C         141.8501  139.6567  169.1950 C.3     1  UNL1        0.0521
      8 C         142.2984  140.1300  167.8441 C.ar    1  UNL1        0.0593
      9 C         142.1371  139.2414  166.6465 C.ar    1  UNL1        0.0147
     10 C         142.5854  139.7146  165.2955 C.ar    1  UNL1        0.0028
     11 C         143.1949  141.0766  165.1422 C.ar    1  UNL1        0.0206
     12 C         143.6432  141.5498  163.7912 C.ar    1  UNL1        0.0374
     13 C         144.2527  142.9117  163.6378 C.ar    1  UNL1        0.0031
     14 C         144.4140  143.8005  164.8354 C.ar    1  UNL1        0.0016
     15 C         143.9657  143.3272  166.1864 C.ar    1  UNL1        0.0191
     16 C         143.3562  141.9652  166.3397 C.ar    1  UNL1        0.0810
     17 N         142.9079  141.4919  167.6907 N.ar    1  UNL1       -0.2497
     18 S         141.8527  139.4898  159.2710 S.3     1  UNL1       -0.0756
     19 C         140.6018  138.6640  159.3263 C.3     1  UNL1        0.0666
     20 C         139.4566  139.0948  160.1940 C.3     1  UNL1        0.0294
     21 C         138.9181  138.1654  161.2411 C.3     1  UNL1        0.0730
     22 N         138.8371  138.6125  162.6707 N.3     1  UNL1       -0.2724
     23 C         138.7515  137.7170  163.8710 C.3     1  UNL1        0.0724
     24 C         138.6889  138.5846  165.0931 C.3     1  UNL1        0.0214
     25 C         138.6422  139.6876  166.1086 C.3     1  UNL1        0.0072
     26 C         138.7359  140.0163  164.6480 C.3     1  UNL1        0.0350
     27 C         138.8275  140.0335  163.1509 C.3     1  UNL1        0.0761
     28 C         138.7459  141.5060  164.8229 C.ar    1  UNL1       -0.0215
     29 C         139.7697  142.1503  165.7097 C.ar    1  UNL1       -0.0042
     30 C         139.7797  143.6400  165.8846 C.ar    1  UNL1       -0.0003
     31 C         138.7657  144.4855  165.1725 C.ar    1  UNL1       -0.0000
     32 C         137.7419  143.8413  164.2857 C.ar    1  UNL1       -0.0003
     33 C         137.7319  142.3515  164.1108 C.ar    1  UNL1       -0.0042
@<TRIPOS>BOND
     1     7     8    1
     2     8     9   ar
     3     9    10   ar
     4    10    11   ar
     5    11    12   ar
     6    12     1    1
     7     1     2   ar
     8     2     3   ar
     9     3     4   ar
    10     4    18    1
    11    18    19    1
    12    19    20    1
    13    20    21    1
    14    21    22    1
    15    22    23    1
    16    23    24    1
    17    24    25    1
    18    25    26    1
    19    26    28    1
    20    28    29   ar
    21    29    30   ar
    22    30    31   ar
    23    31    32   ar
    24    32    33   ar
    25    26    27    1
    26     4     5   ar
    27     5     6    1
    28    12    13   ar
    29    13    14   ar
    30    14    15   ar
    31    15    16   ar
    32    16    17   ar
    33    17     8   ar
    34    16    11   ar
    35     5     1   ar
    36    27    22    1
    37    26    24    1
    38    33    28   ar
@<TRIPOS>MOLECULE
*****
 33 38 0 0 0
SMALL
GASTEIGER

@<TRIPOS>ATOM
      1 C         141.0329  142.9984  165.7976 C.ar    1  UNL1        0.1669
      2 N         142.4213  142.9427  165.2323 N.ar    1  UNL1       -0.1282
      3 N         142.4344  143.7316  163.9566 N.ar    1  UNL1       -0.1221
      4 C         141.0542  144.2749  163.7333 C.ar    1  UNL1        0.1932
      5 N         140.1880  143.8218  164.8712 N.ar    1  UNL1       -0.2884
      6 C         138.7325  144.1368  165.0510 C.3     1  UNL1        0.1340
      7 C         137.3407  137.2943  166.8371 C.3     1  UNL1        0.0521
      8 C         138.1482  138.5571  166.8944 C.ar    1  UNL1        0.0593
      9 C         138.6104  139.2100  165.6256 C.ar    1  UNL1        0.0147
     10 C         139.4179  140.4728  165.6829 C.ar    1  UNL1        0.0028
     11 C         139.7632  141.0827  167.0091 C.ar    1  UNL1        0.0206
     12 C         140.5707  142.3455  167.0664 C.ar    1  UNL1        0.0374
     13 C         140.9160  142.9554  168.3926 C.ar    1  UNL1        0.0031
     14 C         140.4538  142.3025  169.6615 C.ar    1  UNL1        0.0016
     15 C         139.6463  141.0397  169.6042 C.ar    1  UNL1        0.0191
     16 C         139.3010  140.4298  168.2779 C.ar    1  UNL1        0.0810
     17 N         138.4935  139.1670  168.2206 N.ar    1  UNL1       -0.2497
     18 S         140.6169  145.1225  162.5756 S.3     1  UNL1       -0.0756
     19 C         141.2922  144.9792  161.2439 C.3     1  UNL1        0.0666
     20 C         140.9166  143.8506  160.3302 C.3     1  UNL1        0.0294
     21 C         141.9644  142.8855  159.8604 C.3     1  UNL1        0.0730
     22 N         142.7886  142.1283  160.8592 N.3     1  UNL1       -0.2724
     23 C         144.2217  142.4014  161.2076 C.3     1  UNL1        0.0724
     24 C         144.6432  141.4071  162.2486 C.3     1  UNL1        0.0214
     25 C         144.7707  140.3077  163.2610 C.3     1  UNL1        0.0072
     26 C         143.4705  140.5196  162.5436 C.3     1  UNL1        0.0350
     27 C         142.3243  140.9653  161.6848 C.3     1  UNL1        0.0761
     28 C         142.7344  139.4008  163.2192 C.ar    1  UNL1       -0.0215
     29 C         142.9550  139.1312  164.6782 C.ar    1  UNL1       -0.0042
     30 C         142.2189  138.0125  165.3539 C.ar    1  UNL1       -0.0003
     31 C         141.2622  137.1633  164.5706 C.ar    1  UNL1       -0.0000
     32 C         141.0416  137.4329  163.1116 C.ar    1  UNL1       -0.0003
     33 C         141.7777  138.5517  162.4360 C.ar    1  UNL1       -0.0042
@<TRIPOS>BOND
     1     7     8    1
     2     8     9   ar
     3     9    10   ar
     4    10    11   ar
     5    11    12   ar
     6    12     1    1
     7     1     2   ar
     8     2     3   ar
     9     3     4   ar
    10     4    18    1
    11    18    19    1
    12    19    20    1
    13    20    21    1
    14    21    22    1
    15    22    23    1
    16    23    24    1
    17    24    25    1
    18    25    26    1
    19    26    28    1
    20    28    29   ar
    21    29    30   ar
    22    30    31   ar
    23    31    32   ar
    24    32    33   ar
    25    26    27    1
    26     4     5   ar
    27     5     6    1
    28    12    13   ar
    29    13    14   ar
    30    14    15   ar
    31    15    16   ar
    32    16    17   ar
    33    17     8   ar
    34    16    11   ar
    35     5     1   ar
    36    27    22    1
    37    26    24    1
    38    33    28   ar
