@<TRIPOS>MOLECULE
*****
 17 18 0 0 0
SMALL
GASTEIGER

@<TRIPOS>ATOM
      1 N         143.3379  143.8376  171.1473 N.pl3   1  UNL1       -0.3375
      2 C         142.7371  142.8908  170.1510 C.ar    1  UNL1        0.1567
      3 N         143.4350  141.7307  169.5050 N.ar    1  UNL1       -0.2245
      4 C         142.4622  141.0607  168.5805 C.ar    1  UNL1        0.0893
      5 C         142.5915  139.8678  167.6805 C.ar    1  UNL1        0.0202
      6 C         141.4216  139.4208  166.8550 C.ar    1  UNL1        0.0080
      7 C         140.1224  140.1668  166.9295 C.ar    1  UNL1        0.0334
      8 C         139.9931  141.3597  167.8296 C.ar    1  UNL1        0.0145
      9 C         141.1629  141.8067  168.6551 C.ar    1  UNL1        0.0502
     10 S         141.3329  142.9377  169.6257 S.2     1  UNL1       -0.0520
     11 H         144.2735  143.7243  171.4318 H       1  UNL1        0.1442
     12 H         142.7965  144.5723  171.5166 H       1  UNL1        0.1442
     13 S         138.9525  139.7197  166.1040 S.3     1  UNL1       -0.0144
     14 C         138.2887  138.4061  166.3932 C.3     1  UNL1        0.4477
     15 F         138.8512  137.8421  165.1222 F       1  UNL1       -0.1600
     16 F         137.7263  138.9700  167.6642 F       1  UNL1       -0.1600
     17 F         137.6250  137.0923  166.6823 F       1  UNL1       -0.1600
@<TRIPOS>BOND
     1     1     2    1
     2     2     3   ar
     3     3     4   ar
     4     4     5   ar
     5     5     6   ar
     6     6     7   ar
     7     7    13    1
     8    13    14    1
     9    14    15    1
    10    14    16    1
    11    14    17    1
    12     7     8   ar
    13     8     9   ar
    14     9    10   ar
    15    10     2   ar
    16     9     4   ar
    17     1    11    1
    18     1    12    1
@<TRIPOS>MOLECULE
*****
 17 18 0 0 0
SMALL
GASTEIGER

@<TRIPOS>ATOM
      1 N         139.4376  146.4319  161.8984 N.pl3   1  UNL1       -0.3375
      2 C         139.1699  145.0984  162.5308 C.ar    1  UNL1        0.1567
      3 N         138.2254  144.0525  162.0170 N.ar    1  UNL1       -0.2245
      4 C         138.2716  142.8842  162.9567 C.ar    1  UNL1        0.0893
      5 C         137.5533  141.5674  162.9571 C.ar    1  UNL1        0.0202
      6 C         137.8081  140.5745  164.0521 C.ar    1  UNL1        0.0080
      7 C         138.7811  140.8983  165.1467 C.ar    1  UNL1        0.0334
      8 C         139.4994  142.2151  165.1464 C.ar    1  UNL1        0.0145
      9 C         139.2447  143.2081  164.0514 C.ar    1  UNL1        0.0502
     10 S         139.7998  144.5765  163.7881 S.2     1  UNL1       -0.0520
     11 H         138.9723  146.6855  161.0687 H       1  UNL1        0.1442
     12 H         140.0785  147.0536  162.3131 H       1  UNL1        0.1442
     13 S         139.0359  139.9053  166.2418 S.3     1  UNL1       -0.0144
     14 C         138.5964  138.4804  166.0793 C.3     1  UNL1        0.4477
     15 F         137.3447  138.7786  166.8502 F       1  UNL1       -0.1600
     16 F         139.8481  138.1823  165.3083 F       1  UNL1       -0.1600
     17 F         138.1568  137.0554  165.9167 F       1  UNL1       -0.1600
@<TRIPOS>BOND
     1     1     2    1
     2     2     3   ar
     3     3     4   ar
     4     4     5   ar
     5     5     6   ar
     6     6     7   ar
     7     7    13    1
     8    13    14    1
     9    14    15    1
    10    14    16    1
    11    14    17    1
    12     7     8   ar
    13     8     9   ar
    14     9    10   ar
    15    10     2   ar
    16     9     4   ar
    17     1    11    1
    18     1    12    1
@<TRIPOS>MOLECULE
*****
 17 18 0 0 0
SMALL
GASTEIGER

@<TRIPOS>ATOM
      1 N         137.6094  143.8761  162.2119 N.pl3   1  UNL1       -0.3375
      2 C         138.0788  143.0165  163.3480 C.ar    1  UNL1        0.1567
      3 N         137.6182  141.6204  163.6461 N.ar    1  UNL1       -0.2245
      4 C         138.3459  141.1431  164.8678 C.ar    1  UNL1        0.0893
      5 C         138.2971  139.8481  165.6232 C.ar    1  UNL1        0.0202
      6 C         139.1588  139.6542  166.8355 C.ar    1  UNL1        0.0080
      7 C         140.0692  140.7553  167.2925 C.ar    1  UNL1        0.0334
      8 C         140.1180  142.0502  166.5371 C.ar    1  UNL1        0.0145
      9 C         139.2563  142.2442  165.3248 C.ar    1  UNL1        0.0502
     10 S         139.0912  143.4019  164.3855 S.2     1  UNL1       -0.0520
     11 H         136.9379  143.5324  161.5793 H       1  UNL1        0.1442
     12 H         137.9729  144.7841  162.0988 H       1  UNL1        0.1442
     13 S         140.9310  140.5613  168.5049 S.3     1  UNL1       -0.0144
     14 C         140.3176  140.1067  169.7960 C.3     1  UNL1        0.4477
     15 F         141.3805  139.0570  169.9313 F       1  UNL1       -0.1600
     16 F         139.2547  141.1564  169.6607 F       1  UNL1       -0.1600
     17 F         139.7042  139.6520  171.0872 F       1  UNL1       -0.1600
@<TRIPOS>BOND
     1     1     2    1
     2     2     3   ar
     3     3     4   ar
     4     4     5   ar
     5     5     6   ar
     6     6     7   ar
     7     7    13    1
     8    13    14    1
     9    14    15    1
    10    14    16    1
    11    14    17    1
    12     7     8   ar
    13     8     9   ar
    14     9    10   ar
    15    10     2   ar
    16     9     4   ar
    17     1    11    1
    18     1    12    1
@<TRIPOS>MOLECULE
*****
 17 18 0 0 0
SMALL
GASTEIGER

@<TRIPOS>ATOM
      1 N         140.2971  140.1337  171.5900 N.pl3   1  UNL1       -0.3375
      2 C         140.6392  139.9536  170.1407 C.ar    1  UNL1        0.1567
      3 N         139.6678  139.9628  168.9977 N.ar    1  UNL1       -0.2245
      4 C         140.4411  139.7476  167.7305 C.ar    1  UNL1        0.0893
      5 C         140.0127  139.6627  166.2955 C.ar    1  UNL1        0.0202
      6 C         141.0336  139.4357  165.2203 C.ar    1  UNL1        0.0080
      7 C         142.4829  139.2935  165.5801 C.ar    1  UNL1        0.0334
      8 C         142.9112  139.3784  167.0150 C.ar    1  UNL1        0.0145
      9 C         141.8903  139.6054  168.0903 C.ar    1  UNL1        0.0502
     10 S         142.0127  139.7328  169.5798 S.2     1  UNL1       -0.0520
     11 H         139.3610  140.2736  171.8611 H       1  UNL1        0.1442
     12 H         141.0085  140.1120  172.2701 H       1  UNL1        0.1442
     13 S         143.5038  139.0665  164.5047 S.3     1  UNL1       -0.0144
     14 C         144.6844  139.9841  164.3856 C.3     1  UNL1        0.4477
     15 F         143.7901  141.0660  163.8569 F       1  UNL1       -0.1600
     16 F         145.5787  138.9022  164.9144 F       1  UNL1       -0.1600
     17 F         145.8650  140.9018  164.2665 F       1  UNL1       -0.1600
@<TRIPOS>BOND
     1     1     2    1
     2     2     3   ar
     3     3     4   ar
     4     4     5   ar
     5     5     6   ar
     6     6     7   ar
     7     7    13    1
     8    13    14    1
     9    14    15    1
    10    14    16    1
    11    14    17    1
    12     7     8   ar
    13     8     9   ar
    14     9    10   ar
    15    10     2   ar
    16     9     4   ar
    17     1    11    1
    18     1    12    1
@<TRIPOS>MOLECULE
*****
 17 18 0 0 0
SMALL
GASTEIGER

@<TRIPOS>ATOM
      1 N         140.3056  141.4461  171.1294 N.pl3   1  UNL1       -0.3375
      2 C         139.9310  140.8830  169.7905 C.ar    1  UNL1        0.1567
      3 N         138.8219  139.9094  169.5225 N.ar    1  UNL1       -0.2245
      4 C         138.8052  139.6193  168.0509 C.ar    1  UNL1        0.0893
      5 C         137.9313  138.7345  167.2122 C.ar    1  UNL1        0.0202
      6 C         138.1564  138.6440  165.7319 C.ar    1  UNL1        0.0080
      7 C         139.2553  139.4383  165.0904 C.ar    1  UNL1        0.0334
      8 C         140.1291  140.3231  165.9292 C.ar    1  UNL1        0.0145
      9 C         139.9041  140.4136  167.4094 C.ar    1  UNL1        0.0502
     10 S         140.5999  141.1946  168.4845 S.2     1  UNL1       -0.0520
     11 H         139.8039  141.1794  171.9334 H       1  UNL1        0.1442
     12 H         141.0532  142.0824  171.2041 H       1  UNL1        0.1442
     13 S         139.4804  139.3478  163.6101 S.3     1  UNL1       -0.0144
     14 C         138.5114  138.5931  162.7490 C.3     1  UNL1        0.4477
     15 F         137.6304  139.8050  162.6782 F       1  UNL1       -0.1600
     16 F         139.3924  137.3812  162.8198 F       1  UNL1       -0.1600
     17 F         137.5424  137.8384  161.8878 F       1  UNL1       -0.1600
@<TRIPOS>BOND
     1     1     2    1
     2     2     3   ar
     3     3     4   ar
     4     4     5   ar
     5     5     6   ar
     6     6     7   ar
     7     7    13    1
     8    13    14    1
     9    14    15    1
    10    14    16    1
    11    14    17    1
    12     7     8   ar
    13     8     9   ar
    14     9    10   ar
    15    10     2   ar
    16     9     4   ar
    17     1    11    1
    18     1    12    1
@<TRIPOS>MOLECULE
*****
 17 18 0 0 0
SMALL
GASTEIGER

@<TRIPOS>ATOM
      1 N         145.2658  139.6170  163.9850 N.pl3   1  UNL1       -0.3375
      2 C         144.3921  140.8333  163.9008 C.ar    1  UNL1        0.1567
      3 N         144.8386  142.2538  164.0819 N.ar    1  UNL1       -0.2245
      4 C         143.6410  143.1412  163.9138 C.ar    1  UNL1        0.0893
      5 C         143.4777  144.6307  163.9834 C.ar    1  UNL1        0.0202
      6 C         142.1278  145.2480  163.7680 C.ar    1  UNL1        0.0080
      7 C         140.9411  144.3760  163.4829 C.ar    1  UNL1        0.0334
      8 C         141.1044  142.8865  163.4133 C.ar    1  UNL1        0.0145
      9 C         142.4543  142.2692  163.6287 C.ar    1  UNL1        0.0502
     10 S         142.9185  140.8428  163.6207 S.2     1  UNL1       -0.0520
     11 H         146.2270  139.7135  164.1746 H       1  UNL1        0.1442
     12 H         144.8780  138.7221  163.8506 H       1  UNL1        0.1442
     13 S         139.5911  144.9934  163.2675 S.3     1  UNL1       -0.0144
     14 C         138.4330  144.5836  164.1281 C.3     1  UNL1        0.4477
     15 F         137.7104  144.0776  162.9149 F       1  UNL1       -0.1600
     16 F         139.1555  145.0896  165.3413 F       1  UNL1       -0.1600
     17 F         137.2748  144.1737  164.9888 F       1  UNL1       -0.1600
@<TRIPOS>BOND
     1     1     2    1
     2     2     3   ar
     3     3     4   ar
     4     4     5   ar
     5     5     6   ar
     6     6     7   ar
     7     7    13    1
     8    13    14    1
     9    14    15    1
    10    14    16    1
    11    14    17    1
    12     7     8   ar
    13     8     9   ar
    14     9    10   ar
    15    10     2   ar
    16     9     4   ar
    17     1    11    1
    18     1    12    1
@<TRIPOS>MOLECULE
*****
 17 18 0 0 0
SMALL
GASTEIGER

@<TRIPOS>ATOM
      1 N         140.0184  142.5500  171.5566 N.pl3   1  UNL1       -0.3375
      2 C         140.1046  142.1806  170.1054 C.ar    1  UNL1        0.1567
      3 N         140.4953  143.0970  168.9840 N.ar    1  UNL1       -0.2245
      4 C         140.4474  142.3127  167.7063 C.ar    1  UNL1        0.0893
      5 C         140.7321  142.6933  166.2836 C.ar    1  UNL1        0.0202
      6 C         140.5966  141.6728  165.1927 C.ar    1  UNL1        0.0080
      7 C         140.1764  140.2716  165.5245 C.ar    1  UNL1        0.0334
      8 C         139.8916  139.8909  166.9471 C.ar    1  UNL1        0.0145
      9 C         140.0271  140.9115  168.0380 C.ar    1  UNL1        0.0502
     10 S         139.8153  140.8299  169.5207 S.2     1  UNL1       -0.0520
     11 H         140.2290  143.4677  171.8443 H       1  UNL1        0.1442
     12 H         139.7513  141.8749  172.2214 H       1  UNL1        0.1442
     13 S         140.0409  139.2510  164.4335 S.3     1  UNL1       -0.0144
     14 C         140.6128  137.8766  164.6170 C.3     1  UNL1        0.4477
     15 F         139.2319  137.3300  164.8270 F       1  UNL1       -0.1600
     16 F         141.9938  138.4232  164.4069 F       1  UNL1       -0.1600
     17 F         141.1848  136.5020  164.8005 F       1  UNL1       -0.1600
@<TRIPOS>BOND
     1     1     2    1
     2     2     3   ar
     3     3     4   ar
     4     4     5   ar
     5     5     6   ar
     6     6     7   ar
     7     7    13    1
     8    13    14    1
     9    14    15    1
    10    14    16    1
    11    14    17    1
    12     7     8   ar
    13     8     9   ar
    14     9    10   ar
    15    10     2   ar
    16     9     4   ar
    17     1    11    1
    18     1    12    1
@<TRIPOS>MOLECULE
*****
 17 18 0 0 0
SMALL
GASTEIGER

@<TRIPOS>ATOM
      1 N         143.9003  139.5424  171.4683 N.pl3   1  UNL1       -0.3375
      2 C         143.0087  140.0682  170.3827 C.ar    1  UNL1        0.1567
      3 N         142.7113  141.5126  170.1083 N.ar    1  UNL1       -0.2245
      4 C         141.7767  141.5791  168.9369 C.ar    1  UNL1        0.0893
      5 C         141.1447  142.7362  168.2216 C.ar    1  UNL1        0.0202
      6 C         140.2324  142.4899  167.0566 C.ar    1  UNL1        0.0080
      7 C         139.9523  141.0866  166.6070 C.ar    1  UNL1        0.0334
      8 C         140.5844  139.9295  167.3223 C.ar    1  UNL1        0.0145
      9 C         141.4966  140.1758  168.4872 C.ar    1  UNL1        0.0502
     10 S         142.2580  139.2420  169.3808 S.2     1  UNL1       -0.0520
     11 H         144.3521  140.1675  172.0801 H       1  UNL1        0.1442
     12 H         144.0337  138.5722  171.5689 H       1  UNL1        0.1442
     13 S         139.0400  140.8403  165.4419 S.3     1  UNL1       -0.0144
     14 C         138.7354  139.4361  165.0116 C.3     1  UNL1        0.4477
     15 F         137.6185  139.3722  166.0107 F       1  UNL1       -0.1600
     16 F         139.8524  139.4999  164.0125 F       1  UNL1       -0.1600
     17 F         138.4308  138.0317  164.5813 F       1  UNL1       -0.1600
@<TRIPOS>BOND
     1     1     2    1
     2     2     3   ar
     3     3     4   ar
     4     4     5   ar
     5     5     6   ar
     6     6     7   ar
     7     7    13    1
     8    13    14    1
     9    14    15    1
    10    14    16    1
    11    14    17    1
    12     7     8   ar
    13     8     9   ar
    14     9    10   ar
    15    10     2   ar
    16     9     4   ar
    17     1    11    1
    18     1    12    1
@<TRIPOS>MOLECULE
*****
 17 18 0 0 0
SMALL
GASTEIGER

@<TRIPOS>ATOM
      1 N         139.9618  139.4633  171.3410 N.pl3   1  UNL1       -0.3375
      2 C         140.2860  140.0564  170.0018 C.ar    1  UNL1        0.1567
      3 N         139.4611  139.9243  168.7560 N.ar    1  UNL1       -0.2245
      4 C         140.1572  140.6719  167.6576 C.ar    1  UNL1        0.0893
      5 C         139.8103  140.8884  166.2145 C.ar    1  UNL1        0.0202
      6 C         140.7187  141.6990  165.3383 C.ar    1  UNL1        0.0080
      7 C         141.9739  142.2932  165.9053 C.ar    1  UNL1        0.0334
      8 C         142.3208  142.0767  167.3484 C.ar    1  UNL1        0.0145
      9 C         141.4124  141.2660  168.2246 C.ar    1  UNL1        0.0502
     10 S         141.4920  140.8856  169.6734 S.2     1  UNL1       -0.0520
     11 H         139.1420  138.9310  171.4582 H       1  UNL1        0.1442
     12 H         140.5689  139.6064  172.1027 H       1  UNL1        0.1442
     13 S         142.8822  143.1038  165.0290 S.3     1  UNL1       -0.0144
     14 C         144.2916  142.6510  164.7871 C.3     1  UNL1        0.4477
     15 F         144.8012  143.7990  165.6071 F       1  UNL1       -0.1600
     16 F         143.7821  141.5030  163.9672 F       1  UNL1       -0.1600
     17 F         145.7011  142.1982  164.5453 F       1  UNL1       -0.1600
@<TRIPOS>BOND
     1     1     2    1
     2     2     3   ar
     3     3     4   ar
     4     4     5   ar
     5     5     6   ar
     6     6     7   ar
     7     7    13    1
     8    13    14    1
     9    14    15    1
    10    14    16    1
    11    14    17    1
    12     7     8   ar
    13     8     9   ar
    14     9    10   ar
    15    10     2   ar
    16     9     4   ar
    17     1    11    1
    18     1    12    1
