@<TRIPOS>MOLECULE
*****
 39 44 0 0 0
SMALL
GASTEIGER

@<TRIPOS>ATOM
      1 C         140.2673  145.4507  158.2287 C.3     1  UNL1        0.0294
      2 C         140.0905  144.3439  157.2318 C.3     1  UNL1        0.0666
      3 S         139.1163  143.2367  157.5053 S.3     1  UNL1       -0.0756
      4 C         139.5534  141.0599  160.6890 C.ar    1  UNL1        0.1669
      5 N         138.5436  142.0640  161.1607 N.ar    1  UNL1       -0.1282
      6 N         138.2570  143.0015  160.0255 N.ar    1  UNL1       -0.1221
      7 C         139.0896  142.5770  158.8522 C.ar    1  UNL1        0.1932
      8 N         139.8907  141.3771  159.2623 N.ar    1  UNL1       -0.2884
      9 C         140.8593  140.6261  158.3975 C.3     1  UNL1        0.1340
     10 C         138.1128  138.9287  167.0634 C.3     1  UNL1        0.0521
     11 C         138.6159  139.1806  165.6729 C.ar    1  UNL1        0.0593
     12 C         138.0440  140.3044  164.8605 C.ar    1  UNL1        0.0147
     13 C         138.5471  140.5562  163.4700 C.ar    1  UNL1        0.0028
     14 C         139.6221  139.6843  162.8919 C.ar    1  UNL1        0.0206
     15 C         140.1252  139.9362  161.5014 C.ar    1  UNL1        0.0374
     16 C         141.2002  139.0642  160.9234 C.ar    1  UNL1        0.0031
     17 C         141.7721  137.9404  161.7359 C.ar    1  UNL1        0.0016
     18 C         141.2690  137.6886  163.1263 C.ar    1  UNL1        0.0191
     19 C         140.1940  138.5605  163.7044 C.ar    1  UNL1        0.0810
     20 N         139.6909  138.3086  165.0949 N.ar    1  UNL1       -0.2497
     21 C         141.4676  145.4652  159.1282 C.3     1  UNL1        0.0730
     22 N         141.4138  144.7807  160.4618 N.3     1  UNL1       -0.2720
     23 C         142.3485  143.6204  160.6359 C.3     1  UNL1        0.0768
     24 C         142.5327  142.7398  161.8362 C.3     1  UNL1        0.0434
     25 C         141.8279  142.8020  163.1587 C.ar    1  UNL1       -0.0230
     26 C         142.3130  141.7301  164.0892 C.ar    1  UNL1        0.0178
     27 C         141.7348  141.6163  165.4686 C.ar    1  UNL1        0.1182
     28 N         142.0123  140.6692  166.5982 N.ar    1  UNL1       -0.2121
     29 C         141.1205  141.0419  167.7453 C.ar    1  UNL1        0.2047
     30 O         140.2920  142.2194  167.3246 O.2     1  UNL1       -0.4385
     31 C         140.6716  142.5743  165.9176 C.ar    1  UNL1        0.1640
     32 C         140.1865  143.6463  164.9871 C.ar    1  UNL1        0.0346
     33 C         140.7646  143.7601  163.6077 C.ar    1  UNL1       -0.0216
     34 C         140.1437  144.8927  162.8450 C.3     1  UNL1        0.0434
     35 C         140.4327  145.3468  161.4449 C.3     1  UNL1        0.0768
     36 C         141.0668  140.3573  169.0789 C.3     1  UNL1        0.0688
     37 C         142.2819  139.5558  168.7163 C.3     1  UNL1        0.0092
     38 C         139.8519  141.1587  169.4414 C.3     1  UNL1        0.0092
     39 C         141.0132  139.6727  170.4124 C.3     1  UNL1        0.0092
@<TRIPOS>BOND
     1    10    11    1
     2    11    12   ar
     3    12    13   ar
     4    13    14   ar
     5    14    15   ar
     6    15     4    1
     7     4     5   ar
     8     5     6   ar
     9     6     7   ar
    10     7     3    1
    11     3     2    1
    12     2     1    1
    13     1    21    1
    14    21    22    1
    15    22    23    1
    16    23    24    1
    17    24    25    1
    18    25    26   ar
    19    26    27   ar
    20    27    28   ar
    21    28    29   ar
    22    29    36    1
    23    36    37    1
    24    36    38    1
    25    36    39    1
    26    29    30   ar
    27    30    31   ar
    28    31    32   ar
    29    32    33   ar
    30    33    34    1
    31    34    35    1
    32     7     8   ar
    33     8     9    1
    34    15    16   ar
    35    16    17   ar
    36    17    18   ar
    37    18    19   ar
    38    19    20   ar
    39    20    11   ar
    40    19    14   ar
    41     8     4   ar
    42    35    22    1
    43    33    25   ar
    44    31    27   ar
@<TRIPOS>MOLECULE
*****
 39 44 0 0 0
SMALL
GASTEIGER

@<TRIPOS>ATOM
      1 C         142.7097  142.2349  157.6338 C.3     1  UNL1        0.0294
      2 C         142.8994  141.2387  156.5284 C.3     1  UNL1        0.0666
      3 S         142.2945  139.8707  156.6398 S.3     1  UNL1       -0.0756
      4 C         141.4729  138.4628  160.1624 C.ar    1  UNL1        0.1669
      5 N         142.7891  137.7989  159.8846 N.ar    1  UNL1       -0.1282
      6 N         143.2570  138.2456  158.5312 N.ar    1  UNL1       -0.1221
      7 C         142.2300  139.1854  157.9726 C.ar    1  UNL1        0.1932
      8 N         141.1275  139.3196  158.9806 N.ar    1  UNL1       -0.2884
      9 C         139.8956  140.1627  158.8329 C.3     1  UNL1        0.1340
     10 C         143.2213  138.7713  166.8030 C.3     1  UNL1        0.0521
     11 C         142.5778  138.6531  165.4532 C.ar    1  UNL1        0.0593
     12 C         143.4035  138.8173  164.2117 C.ar    1  UNL1        0.0147
     13 C         142.7599  138.6992  162.8619 C.ar    1  UNL1        0.0028
     14 C         141.2908  138.4167  162.7536 C.ar    1  UNL1        0.0206
     15 C         140.6473  138.2986  161.4038 C.ar    1  UNL1        0.0374
     16 C         139.1781  138.0162  161.2956 C.ar    1  UNL1        0.0031
     17 C         138.3524  137.8519  162.5370 C.ar    1  UNL1        0.0016
     18 C         138.9959  137.9701  163.8867 C.ar    1  UNL1        0.0191
     19 C         140.4651  138.2525  163.9951 C.ar    1  UNL1        0.0810
     20 N         141.1086  138.3707  165.3449 N.ar    1  UNL1       -0.2497
     21 C         143.8309  142.5173  158.5894 C.3     1  UNL1        0.0730
     22 N         143.5849  142.4731  160.0684 N.3     1  UNL1       -0.2720
     23 C         142.1629  142.2393  160.4849 C.3     1  UNL1        0.0768
     24 C         141.5982  142.1432  161.8713 C.3     1  UNL1        0.0434
     25 C         142.3160  142.2571  163.1834 C.ar    1  UNL1       -0.0230
     26 C         141.3730  142.0997  164.3393 C.ar    1  UNL1        0.0178
     27 C         141.8898  142.1806  165.7452 C.ar    1  UNL1        0.1182
     28 N         141.2047  142.0649  167.0746 N.ar    1  UNL1       -0.2121
     29 C         142.2411  142.2317  168.1461 C.ar    1  UNL1        0.2047
     30 O         143.5665  142.4504  167.4790 O.2     1  UNL1       -0.4385
     31 C         143.3495  142.4188  165.9952 C.ar    1  UNL1        0.1640
     32 C         144.2925  142.5763  164.8393 C.ar    1  UNL1        0.0346
     33 C         143.7757  142.4954  163.4334 C.ar    1  UNL1       -0.0216
     34 C         144.8782  142.6785  162.4329 C.3     1  UNL1        0.0434
     35 C         144.7932  142.6686  160.9353 C.3     1  UNL1        0.0768
     36 C         141.9949  142.1875  169.6252 C.3     1  UNL1        0.0688
     37 C         140.8938  143.1945  169.4720 C.3     1  UNL1        0.0092
     38 C         143.0960  141.1805  169.7784 C.3     1  UNL1        0.0092
     39 C         141.7488  142.1433  171.1041 C.3     1  UNL1        0.0092
@<TRIPOS>BOND
     1    10    11    1
     2    11    12   ar
     3    12    13   ar
     4    13    14   ar
     5    14    15   ar
     6    15     4    1
     7     4     5   ar
     8     5     6   ar
     9     6     7   ar
    10     7     3    1
    11     3     2    1
    12     2     1    1
    13     1    21    1
    14    21    22    1
    15    22    23    1
    16    23    24    1
    17    24    25    1
    18    25    26   ar
    19    26    27   ar
    20    27    28   ar
    21    28    29   ar
    22    29    36    1
    23    36    37    1
    24    36    38    1
    25    36    39    1
    26    29    30   ar
    27    30    31   ar
    28    31    32   ar
    29    32    33   ar
    30    33    34    1
    31    34    35    1
    32     7     8   ar
    33     8     9    1
    34    15    16   ar
    35    16    17   ar
    36    17    18   ar
    37    18    19   ar
    38    19    20   ar
    39    20    11   ar
    40    19    14   ar
    41     8     4   ar
    42    35    22    1
    43    33    25   ar
    44    31    27   ar
@<TRIPOS>MOLECULE
*****
 39 44 0 0 0
SMALL
GASTEIGER

@<TRIPOS>ATOM
      1 C         140.8881  145.0247  158.4256 C.3     1  UNL1        0.0294
      2 C         140.0750  144.1070  157.5613 C.3     1  UNL1        0.0666
      3 S         140.3630  142.6350  157.5517 S.3     1  UNL1       -0.0756
      4 C         140.5807  140.9669  161.0497 C.ar    1  UNL1        0.1669
      5 N         141.9698  140.7375  160.5321 N.ar    1  UNL1       -0.1282
      6 N         142.0573  141.3344  159.1588 N.ar    1  UNL1       -0.1221
      7 C         140.7223  141.9328  158.8276 C.ar    1  UNL1        0.1932
      8 N         139.8097  141.7056  159.9961 N.ar    1  UNL1       -0.2884
      9 C         138.3775  142.1408  160.0941 C.3     1  UNL1        0.1340
     10 C         143.7646  138.0946  166.4221 C.3     1  UNL1        0.0521
     11 C         142.8372  138.7044  165.4131 C.ar    1  UNL1        0.0593
     12 C         143.3630  139.1376  164.0767 C.ar    1  UNL1        0.0147
     13 C         142.4355  139.7474  163.0677 C.ar    1  UNL1        0.0028
     14 C         140.9823  139.9239  163.3950 C.ar    1  UNL1        0.0206
     15 C         140.0549  140.5337  162.3860 C.ar    1  UNL1        0.0374
     16 C         138.6018  140.7101  162.7134 C.ar    1  UNL1        0.0031
     17 C         138.0760  140.2769  164.0497 C.ar    1  UNL1        0.0016
     18 C         139.0034  139.6672  165.0587 C.ar    1  UNL1        0.0191
     19 C         140.4566  139.4906  164.7314 C.ar    1  UNL1        0.0810
     20 N         141.3840  138.8809  165.7404 N.ar    1  UNL1       -0.2497
     21 C         140.2983  145.5872  159.6848 C.3     1  UNL1        0.0730
     22 N         140.6149  144.9563  161.0083 N.3     1  UNL1       -0.2720
     23 C         139.4708  144.8605  161.9738 C.3     1  UNL1        0.0768
     24 C         139.4630  144.2893  163.3609 C.3     1  UNL1        0.0434
     25 C         140.5970  143.6730  164.1248 C.ar    1  UNL1       -0.0230
     26 C         140.1601  143.2253  165.4882 C.ar    1  UNL1        0.0178
     27 C         141.1452  142.5802  166.4174 C.ar    1  UNL1        0.1182
     28 N         141.0068  142.0412  167.8103 N.ar    1  UNL1       -0.2121
     29 C         142.3434  141.5107  168.2370 C.ar    1  UNL1        0.2047
     30 O         143.3078  141.7217  167.1078 O.2     1  UNL1       -0.4385
     31 C         142.5674  142.3828  165.9832 C.ar    1  UNL1        0.1640
     32 C         143.0044  142.8304  164.6198 C.ar    1  UNL1        0.0346
     33 C         142.0192  143.4755  163.6907 C.ar    1  UNL1       -0.0216
     34 C         142.6585  143.8457  162.3852 C.3     1  UNL1        0.0434
     35 C         142.0334  144.5047  161.1915 C.3     1  UNL1        0.0768
     36 C         142.6598  140.8798  169.5606 C.3     1  UNL1        0.0688
     37 C         143.5803  142.0192  169.8837 C.3     1  UNL1        0.0092
     38 C         141.7394  139.7403  169.2376 C.3     1  UNL1        0.0092
     39 C         142.9763  140.2489  170.8841 C.3     1  UNL1        0.0092
@<TRIPOS>BOND
     1    10    11    1
     2    11    12   ar
     3    12    13   ar
     4    13    14   ar
     5    14    15   ar
     6    15     4    1
     7     4     5   ar
     8     5     6   ar
     9     6     7   ar
    10     7     3    1
    11     3     2    1
    12     2     1    1
    13     1    21    1
    14    21    22    1
    15    22    23    1
    16    23    24    1
    17    24    25    1
    18    25    26   ar
    19    26    27   ar
    20    27    28   ar
    21    28    29   ar
    22    29    36    1
    23    36    37    1
    24    36    38    1
    25    36    39    1
    26    29    30   ar
    27    30    31   ar
    28    31    32   ar
    29    32    33   ar
    30    33    34    1
    31    34    35    1
    32     7     8   ar
    33     8     9    1
    34    15    16   ar
    35    16    17   ar
    36    17    18   ar
    37    18    19   ar
    38    19    20   ar
    39    20    11   ar
    40    19    14   ar
    41     8     4   ar
    42    35    22    1
    43    33    25   ar
    44    31    27   ar
@<TRIPOS>MOLECULE
*****
 39 44 0 0 0
SMALL
GASTEIGER

@<TRIPOS>ATOM
      1 C         144.4343  141.9863  158.2921 C.3     1  UNL1        0.0294
      2 C         143.5632  142.8808  157.4607 C.3     1  UNL1        0.0666
      3 S         142.0719  142.8272  157.6124 S.3     1  UNL1       -0.0756
      4 C         140.5936  142.2590  161.1560 C.ar    1  UNL1        0.1669
      5 N         140.4714  140.8848  160.5672 N.ar    1  UNL1       -0.1282
      6 N         141.0102  140.9304  159.1681 N.ar    1  UNL1       -0.1221
      7 C         141.4656  142.3328  158.8922 C.ar    1  UNL1        0.1932
      8 N         141.2081  143.1538  160.1208 N.ar    1  UNL1       -0.2884
      9 C         141.5118  144.6136  160.2853 C.3     1  UNL1        0.1340
     10 C         138.1000  138.5524  166.3803 C.3     1  UNL1        0.0521
     11 C         138.6187  139.5809  165.4196 C.ar    1  UNL1        0.0593
     12 C         139.0374  139.1732  164.0381 C.ar    1  UNL1        0.0147
     13 C         139.5561  140.2018  163.0774 C.ar    1  UNL1        0.0028
     14 C         139.6562  141.6381  163.4982 C.ar    1  UNL1        0.0206
     15 C         140.1750  142.6667  162.5374 C.ar    1  UNL1        0.0374
     16 C         140.2751  144.1029  162.9583 C.ar    1  UNL1        0.0031
     17 C         139.8564  144.5107  164.3398 C.ar    1  UNL1        0.0016
     18 C         139.3377  143.4821  165.3004 C.ar    1  UNL1        0.0191
     19 C         139.2376  142.0458  164.8797 C.ar    1  UNL1        0.0810
     20 N         138.7188  141.0173  165.8404 N.ar    1  UNL1       -0.2497
     21 C         145.1077  142.5251  159.5194 C.3     1  UNL1        0.0730
     22 N         144.5554  142.2093  160.8778 N.3     1  UNL1       -0.2720
     23 C         144.1574  140.7805  161.1024 C.3     1  UNL1        0.0768
     24 C         143.5798  140.1535  162.3367 C.3     1  UNL1        0.0434
     25 C         143.2576  140.8004  163.6510 C.ar    1  UNL1       -0.0230
     26 C         142.6914  139.8100  164.6250 C.ar    1  UNL1        0.0178
     27 C         142.3010  140.2532  166.0038 C.ar    1  UNL1        0.1182
     28 N         141.7214  139.5099  167.1706 N.ar    1  UNL1       -0.2121
     29 C         141.5389  140.4840  168.2966 C.ar    1  UNL1        0.2047
     30 O         142.0058  141.8294  167.8256 O.2     1  UNL1       -0.4385
     31 C         142.4767  141.6869  166.4087 C.ar    1  UNL1        0.1640
     32 C         143.0429  142.6772  165.4347 C.ar    1  UNL1        0.0346
     33 C         143.4334  142.2340  164.0559 C.ar    1  UNL1       -0.0216
     34 C         143.9748  143.3748  163.2463 C.3     1  UNL1        0.0434
     35 C         144.4741  143.3637  161.8319 C.3     1  UNL1        0.0768
     36 C         140.9866  140.1681  169.6549 C.3     1  UNL1        0.0688
     37 C         139.7598  140.9730  169.3433 C.3     1  UNL1        0.0092
     38 C         142.2133  139.3632  169.9666 C.3     1  UNL1        0.0092
     39 C         140.4343  139.8522  171.0132 C.3     1  UNL1        0.0092
@<TRIPOS>BOND
     1    10    11    1
     2    11    12   ar
     3    12    13   ar
     4    13    14   ar
     5    14    15   ar
     6    15     4    1
     7     4     5   ar
     8     5     6   ar
     9     6     7   ar
    10     7     3    1
    11     3     2    1
    12     2     1    1
    13     1    21    1
    14    21    22    1
    15    22    23    1
    16    23    24    1
    17    24    25    1
    18    25    26   ar
    19    26    27   ar
    20    27    28   ar
    21    28    29   ar
    22    29    36    1
    23    36    37    1
    24    36    38    1
    25    36    39    1
    26    29    30   ar
    27    30    31   ar
    28    31    32   ar
    29    32    33   ar
    30    33    34    1
    31    34    35    1
    32     7     8   ar
    33     8     9    1
    34    15    16   ar
    35    16    17   ar
    36    17    18   ar
    37    18    19   ar
    38    19    20   ar
    39    20    11   ar
    40    19    14   ar
    41     8     4   ar
    42    35    22    1
    43    33    25   ar
    44    31    27   ar
@<TRIPOS>MOLECULE
*****
 39 44 0 0 0
SMALL
GASTEIGER

@<TRIPOS>ATOM
      1 C         142.8966  138.6608  157.6221 C.3     1  UNL1        0.0294
      2 C         141.8364  139.1712  156.6917 C.3     1  UNL1        0.0666
      3 S         141.8312  140.6134  156.2796 S.3     1  UNL1       -0.0756
      4 C         142.2047  143.2755  159.0795 C.ar    1  UNL1        0.1669
      5 N         143.5599  143.3362  158.4391 N.ar    1  UNL1       -0.1282
      6 N         143.5848  142.3464  157.3124 N.ar    1  UNL1       -0.1221
      7 C         142.2452  141.6739  157.2563 C.ar    1  UNL1        0.1932
      8 N         141.3923  142.2481  158.3484 N.ar    1  UNL1       -0.2884
      9 C         139.9755  141.8627  158.6556 C.3     1  UNL1        0.1340
     10 C         144.5777  143.6823  165.5180 C.3     1  UNL1        0.0521
     11 C         143.8691  143.7861  164.1999 C.ar    1  UNL1        0.0593
     12 C         144.3307  142.9638  163.0334 C.ar    1  UNL1        0.0147
     13 C         143.6220  143.0677  161.7155 C.ar    1  UNL1        0.0028
     14 C         142.4518  143.9939  161.5640 C.ar    1  UNL1        0.0206
     15 C         141.7432  144.0977  160.2460 C.ar    1  UNL1        0.0374
     16 C         140.5730  145.0239  160.0946 C.ar    1  UNL1        0.0031
     17 C         140.1115  145.8461  161.2612 C.ar    1  UNL1        0.0016
     18 C         140.8201  145.7423  162.5791 C.ar    1  UNL1        0.0191
     19 C         141.9903  144.8161  162.7305 C.ar    1  UNL1        0.0810
     20 N         142.6989  144.7123  164.0486 N.ar    1  UNL1       -0.2497
     21 C         142.5138  137.8355  158.8146 C.3     1  UNL1        0.0730
     22 N         142.4348  138.4698  160.1716 N.3     1  UNL1       -0.2720
     23 C         141.2551  139.3671  160.4028 C.3     1  UNL1        0.0768
     24 C         140.8951  140.1392  161.6375 C.3     1  UNL1        0.0434
     25 C         141.6257  140.2046  162.9457 C.ar    1  UNL1       -0.0230
     26 C         140.9216  141.0992  163.9225 C.ar    1  UNL1        0.0178
     27 C         141.4886  141.3033  165.2961 C.ar    1  UNL1        0.1182
     28 N         141.0206  142.1199  166.4640 N.ar    1  UNL1       -0.2121
     29 C         142.0025  141.9342  167.5827 C.ar    1  UNL1        0.2047
     30 O         143.0773  141.0029  167.1062 O.2     1  UNL1       -0.4385
     31 C         142.7598  140.6129  165.6931 C.ar    1  UNL1        0.1640
     32 C         143.4639  139.7183  164.7163 C.ar    1  UNL1        0.0346
     33 C         142.8969  139.5142  163.3427 C.ar    1  UNL1       -0.0216
     34 C         143.7513  138.5878  162.5292 C.3     1  UNL1        0.0434
     35 C         143.5456  138.1230  161.1180 C.3     1  UNL1        0.0768
     36 C         141.9233  142.5686  168.9397 C.3     1  UNL1        0.0688
     37 C         140.4799  142.8996  168.7007 C.3     1  UNL1        0.0092
     38 C         143.3666  142.2376  169.1787 C.3     1  UNL1        0.0092
     39 C         141.8440  143.2030  170.2966 C.3     1  UNL1        0.0092
@<TRIPOS>BOND
     1    10    11    1
     2    11    12   ar
     3    12    13   ar
     4    13    14   ar
     5    14    15   ar
     6    15     4    1
     7     4     5   ar
     8     5     6   ar
     9     6     7   ar
    10     7     3    1
    11     3     2    1
    12     2     1    1
    13     1    21    1
    14    21    22    1
    15    22    23    1
    16    23    24    1
    17    24    25    1
    18    25    26   ar
    19    26    27   ar
    20    27    28   ar
    21    28    29   ar
    22    29    36    1
    23    36    37    1
    24    36    38    1
    25    36    39    1
    26    29    30   ar
    27    30    31   ar
    28    31    32   ar
    29    32    33   ar
    30    33    34    1
    31    34    35    1
    32     7     8   ar
    33     8     9    1
    34    15    16   ar
    35    16    17   ar
    36    17    18   ar
    37    18    19   ar
    38    19    20   ar
    39    20    11   ar
    40    19    14   ar
    41     8     4   ar
    42    35    22    1
    43    33    25   ar
    44    31    27   ar
@<TRIPOS>MOLECULE
*****
 39 44 0 0 0
SMALL
GASTEIGER

@<TRIPOS>ATOM
      1 C         141.8955  140.8799  156.4284 C.3     1  UNL1        0.0294
      2 C         140.6175  141.2374  155.7290 C.3     1  UNL1        0.0666
      3 S         139.3175  140.6544  156.1980 S.3     1  UNL1       -0.0756
      4 C         138.6845  140.5997  160.0271 C.ar    1  UNL1        0.1669
      5 N         138.9222  139.1444  159.7518 N.ar    1  UNL1       -0.1282
      6 N         139.1883  138.9879  158.2839 N.ar    1  UNL1       -0.1221
      7 C         139.1150  140.3463  157.6520 C.ar    1  UNL1        0.1932
      8 N         138.8036  141.3424  158.7294 N.ar    1  UNL1       -0.2884
      9 C         138.6401  142.8217  158.5419 C.3     1  UNL1        0.1340
     10 C         138.3510  137.7642  166.2801 C.3     1  UNL1        0.0521
     11 C         138.3585  138.6246  165.0513 C.ar    1  UNL1        0.0593
     12 C         138.6621  138.0186  163.7132 C.ar    1  UNL1        0.0147
     13 C         138.6695  138.8790  162.4845 C.ar    1  UNL1        0.0028
     14 C         138.3735  140.3454  162.5939 C.ar    1  UNL1        0.0206
     15 C         138.3809  141.2057  161.3652 C.ar    1  UNL1        0.0374
     16 C         138.0849  142.6721  161.4747 C.ar    1  UNL1        0.0031
     17 C         137.7813  143.2782  162.8128 C.ar    1  UNL1        0.0016
     18 C         137.7738  142.4179  164.0414 C.ar    1  UNL1        0.0191
     19 C         138.0699  140.9514  163.9320 C.ar    1  UNL1        0.0810
     20 N         138.0624  140.0911  165.1608 N.ar    1  UNL1       -0.2497
     21 C         142.4976  141.8290  157.4217 C.3     1  UNL1        0.0730
     22 N         142.3328  141.5806  158.8917 N.3     1  UNL1       -0.2720
     23 C         142.4971  140.1565  159.3335 C.3     1  UNL1        0.0768
     24 C         142.3947  139.5891  160.7183 C.3     1  UNL1        0.0434
     25 C         142.1026  140.3056  162.0032 C.ar    1  UNL1       -0.0230
     26 C         142.0907  139.3599  163.1676 C.ar    1  UNL1        0.0178
     27 C         141.8170  139.8750  164.5495 C.ar    1  UNL1        0.1182
     28 N         141.7411  139.1873  165.8803 N.ar    1  UNL1       -0.2121
     29 C         141.4324  140.2230  166.9205 C.ar    1  UNL1        0.2047
     30 O         141.3175  141.5509  166.2324 O.2     1  UNL1       -0.4385
     31 C         141.5552  141.3359  164.7672 C.ar    1  UNL1        0.1640
     32 C         141.5670  142.2816  163.6028 C.ar    1  UNL1        0.0346
     33 C         141.8407  141.7664  162.2209 C.ar    1  UNL1       -0.0216
     34 C         141.8064  142.8716  161.2073 C.3     1  UNL1        0.0434
     35 C         142.0254  142.7888  159.7257 C.3     1  UNL1        0.0768
     36 C         141.2676  139.9744  168.3905 C.3     1  UNL1        0.0688
     37 C         142.6837  139.4858  168.4667 C.3     1  UNL1        0.0092
     38 C         139.8515  140.4630  168.3144 C.3     1  UNL1        0.0092
     39 C         141.1028  139.7258  169.8605 C.3     1  UNL1        0.0092
@<TRIPOS>BOND
     1    10    11    1
     2    11    12   ar
     3    12    13   ar
     4    13    14   ar
     5    14    15   ar
     6    15     4    1
     7     4     5   ar
     8     5     6   ar
     9     6     7   ar
    10     7     3    1
    11     3     2    1
    12     2     1    1
    13     1    21    1
    14    21    22    1
    15    22    23    1
    16    23    24    1
    17    24    25    1
    18    25    26   ar
    19    26    27   ar
    20    27    28   ar
    21    28    29   ar
    22    29    36    1
    23    36    37    1
    24    36    38    1
    25    36    39    1
    26    29    30   ar
    27    30    31   ar
    28    31    32   ar
    29    32    33   ar
    30    33    34    1
    31    34    35    1
    32     7     8   ar
    33     8     9    1
    34    15    16   ar
    35    16    17   ar
    36    17    18   ar
    37    18    19   ar
    38    19    20   ar
    39    20    11   ar
    40    19    14   ar
    41     8     4   ar
    42    35    22    1
    43    33    25   ar
    44    31    27   ar
@<TRIPOS>MOLECULE
*****
 39 44 0 0 0
SMALL
GASTEIGER

@<TRIPOS>ATOM
      1 C         142.1998  139.0011  157.8103 C.3     1  UNL1        0.0294
      2 C         141.6863  139.7595  156.6224 C.3     1  UNL1        0.0666
      3 S         140.5665  140.7437  156.7878 S.3     1  UNL1       -0.0756
      4 C         138.6011  140.9637  160.1276 C.ar    1  UNL1        0.1669
      5 N         137.7953  139.9402  159.3839 N.ar    1  UNL1       -0.1282
      6 N         138.4334  139.7332  158.0423 N.ar    1  UNL1       -0.1221
      7 C         139.6337  140.6288  157.9568 C.ar    1  UNL1        0.1932
      8 N         139.7373  141.3893  159.2456 N.ar    1  UNL1       -0.2884
      9 C         140.7920  142.3982  159.5916 C.3     1  UNL1        0.1340
     10 C         138.4375  137.7009  166.1756 C.3     1  UNL1        0.0521
     11 C         138.4082  138.6438  165.0092 C.ar    1  UNL1        0.0593
     12 C         138.6892  138.1351  163.6264 C.ar    1  UNL1        0.0147
     13 C         138.6598  139.0780  162.4601 C.ar    1  UNL1        0.0028
     14 C         138.3495  140.5295  162.6767 C.ar    1  UNL1        0.0206
     15 C         138.3201  141.4723  161.5104 C.ar    1  UNL1        0.0374
     16 C         138.0097  142.9238  161.7271 C.ar    1  UNL1        0.0031
     17 C         137.7287  143.4324  163.1100 C.ar    1  UNL1        0.0016
     18 C         137.7581  142.4896  164.2761 C.ar    1  UNL1        0.0191
     19 C         138.0684  141.0381  164.0596 C.ar    1  UNL1        0.0810
     20 N         138.0978  140.0953  165.2259 N.ar    1  UNL1       -0.2497
     21 C         143.4004  139.5011  158.5576 C.3     1  UNL1        0.0730
     22 N         143.2723  139.9108  159.9949 N.3     1  UNL1       -0.2720
     23 C         142.2730  139.1391  160.8049 C.3     1  UNL1        0.0768
     24 C         141.9149  139.3040  162.2522 C.3     1  UNL1        0.0434
     25 C         142.4677  140.2811  163.2469 C.ar    1  UNL1       -0.0230
     26 C         141.8330  140.1090  164.5951 C.ar    1  UNL1        0.0178
     27 C         142.2456  140.9905  165.7364 C.ar    1  UNL1        0.1182
     28 N         141.8001  141.0545  167.1672 N.ar    1  UNL1       -0.2121
     29 C         142.5721  142.1477  167.8447 C.ar    1  UNL1        0.2047
     30 O         143.4947  142.7594  166.8325 O.2     1  UNL1       -0.4385
     31 C         143.2930  142.0442  165.5296 C.ar    1  UNL1        0.1640
     32 C         143.9277  142.2164  164.1814 C.ar    1  UNL1        0.0346
     33 C         143.5151  141.3348  163.0401 C.ar    1  UNL1       -0.0216
     34 C         144.2683  141.6716  161.7874 C.3     1  UNL1        0.0434
     35 C         144.1602  141.0377  160.4322 C.3     1  UNL1        0.0768
     36 C         142.4438  142.5572  169.2820 C.3     1  UNL1        0.0688
     37 C         141.0035  142.9084  169.0534 C.3     1  UNL1        0.0092
     38 C         143.8841  142.2061  169.5106 C.3     1  UNL1        0.0092
     39 C         142.3155  142.9668  170.7192 C.3     1  UNL1        0.0092
@<TRIPOS>BOND
     1    10    11    1
     2    11    12   ar
     3    12    13   ar
     4    13    14   ar
     5    14    15   ar
     6    15     4    1
     7     4     5   ar
     8     5     6   ar
     9     6     7   ar
    10     7     3    1
    11     3     2    1
    12     2     1    1
    13     1    21    1
    14    21    22    1
    15    22    23    1
    16    23    24    1
    17    24    25    1
    18    25    26   ar
    19    26    27   ar
    20    27    28   ar
    21    28    29   ar
    22    29    36    1
    23    36    37    1
    24    36    38    1
    25    36    39    1
    26    29    30   ar
    27    30    31   ar
    28    31    32   ar
    29    32    33   ar
    30    33    34    1
    31    34    35    1
    32     7     8   ar
    33     8     9    1
    34    15    16   ar
    35    16    17   ar
    36    17    18   ar
    37    18    19   ar
    38    19    20   ar
    39    20    11   ar
    40    19    14   ar
    41     8     4   ar
    42    35    22    1
    43    33    25   ar
    44    31    27   ar
@<TRIPOS>MOLECULE
*****
 39 44 0 0 0
SMALL
GASTEIGER

@<TRIPOS>ATOM
      1 C         142.7331  140.3453  157.7407 C.3     1  UNL1        0.0294
      2 C         142.4261  139.0780  156.9990 C.3     1  UNL1        0.0666
      3 S         141.4932  138.0667  157.5963 S.3     1  UNL1       -0.0756
      4 C         139.3503  138.9249  160.7167 C.ar    1  UNL1        0.1669
      5 N         138.4462  139.3808  159.6099 N.ar    1  UNL1       -0.1282
      6 N         139.1390  139.1148  158.3063 N.ar    1  UNL1       -0.1221
      7 C         140.4711  138.4945  158.6074 C.ar    1  UNL1        0.1932
      8 N         140.6016  138.3772  160.0971 N.ar    1  UNL1       -0.2884
      9 C         141.7773  137.8113  160.8372 C.3     1  UNL1        0.1340
     10 C         137.6796  144.2780  164.6922 C.3     1  UNL1        0.0521
     11 C         138.0234  142.9592  164.0654 C.ar    1  UNL1        0.0593
     12 C         138.3189  142.8811  162.5968 C.ar    1  UNL1        0.0147
     13 C         138.6627  141.5624  161.9702 C.ar    1  UNL1        0.0028
     14 C         138.7109  140.3218  162.8119 C.ar    1  UNL1        0.0206
     15 C         139.0547  139.0030  162.1851 C.ar    1  UNL1        0.0374
     16 C         139.1030  137.7625  163.0270 C.ar    1  UNL1        0.0031
     17 C         138.8074  137.8406  164.4955 C.ar    1  UNL1        0.0016
     18 C         138.4637  139.1593  165.1222 C.ar    1  UNL1        0.0191
     19 C         138.4154  140.3999  164.2805 C.ar    1  UNL1        0.0810
     20 N         138.0716  141.7186  164.9072 N.ar    1  UNL1       -0.2497
     21 C         143.8504  140.3769  158.7409 C.3     1  UNL1        0.0730
     22 N         143.5523  140.6192  160.1909 N.3     1  UNL1       -0.2720
     23 C         144.3425  139.7954  161.1642 C.3     1  UNL1        0.0768
     24 C         144.2790  139.8022  162.6629 C.3     1  UNL1        0.0434
     25 C         143.4098  140.6344  163.5583 C.ar    1  UNL1       -0.0230
     26 C         143.6619  140.3287  165.0051 C.ar    1  UNL1        0.0178
     27 C         142.8936  141.0539  166.0698 C.ar    1  UNL1        0.1182
     28 N         142.9255  140.9658  167.5669 N.ar    1  UNL1       -0.2121
     29 C         141.9248  141.9422  168.1101 C.ar    1  UNL1        0.2047
     30 O         141.2744  142.6339  166.9489 O.2     1  UNL1       -0.4385
     31 C         141.8732  142.0849  165.6879 C.ar    1  UNL1        0.1640
     32 C         141.6210  142.3906  164.2411 C.ar    1  UNL1        0.0346
     33 C         142.3893  141.6653  163.1764 C.ar    1  UNL1       -0.0216
     34 C         141.9861  142.1187  161.8046 C.3     1  UNL1        0.0434
     35 C         142.5037  141.6531  160.4759 C.3     1  UNL1        0.0768
     36 C         141.6268  142.1844  169.5602 C.3     1  UNL1        0.0688
     37 C         140.5066  143.1052  169.1762 C.3     1  UNL1        0.0092
     38 C         142.7469  141.2637  169.9442 C.3     1  UNL1        0.0092
     39 C         141.3288  142.4267  171.0101 C.3     1  UNL1        0.0092
@<TRIPOS>BOND
     1    10    11    1
     2    11    12   ar
     3    12    13   ar
     4    13    14   ar
     5    14    15   ar
     6    15     4    1
     7     4     5   ar
     8     5     6   ar
     9     6     7   ar
    10     7     3    1
    11     3     2    1
    12     2     1    1
    13     1    21    1
    14    21    22    1
    15    22    23    1
    16    23    24    1
    17    24    25    1
    18    25    26   ar
    19    26    27   ar
    20    27    28   ar
    21    28    29   ar
    22    29    36    1
    23    36    37    1
    24    36    38    1
    25    36    39    1
    26    29    30   ar
    27    30    31   ar
    28    31    32   ar
    29    32    33   ar
    30    33    34    1
    31    34    35    1
    32     7     8   ar
    33     8     9    1
    34    15    16   ar
    35    16    17   ar
    36    17    18   ar
    37    18    19   ar
    38    19    20   ar
    39    20    11   ar
    40    19    14   ar
    41     8     4   ar
    42    35    22    1
    43    33    25   ar
    44    31    27   ar
@<TRIPOS>MOLECULE
*****
 39 44 0 0 0
SMALL
GASTEIGER

@<TRIPOS>ATOM
      1 C         142.0320  143.0191  157.4821 C.3     1  UNL1        0.0294
      2 C         142.3789  141.7391  156.7809 C.3     1  UNL1        0.0666
      3 S         141.6984  140.4612  157.1729 S.3     1  UNL1       -0.0756
      4 C         141.4291  139.7646  160.9818 C.ar    1  UNL1        0.1669
      5 N         139.9872  139.9688  160.6218 N.ar    1  UNL1       -0.1282
      6 N         139.9127  140.2545  159.1512 N.ar    1  UNL1       -0.1221
      7 C         141.3084  140.2270  158.6022 C.ar    1  UNL1        0.1932
      8 N         142.2455  139.9242  159.7336 N.ar    1  UNL1       -0.2884
      9 C         143.7373  139.8024  159.6343 C.3     1  UNL1        0.1340
     10 C         138.2101  139.1131  167.0203 C.3     1  UNL1        0.0521
     11 C         139.1478  139.1986  165.8527 C.ar    1  UNL1        0.0593
     12 C         138.6159  139.5081  164.4847 C.ar    1  UNL1        0.0147
     13 C         139.5536  139.5936  163.3171 C.ar    1  UNL1        0.0028
     14 C         141.0232  139.3696  163.5174 C.ar    1  UNL1        0.0206
     15 C         141.9609  139.4552  162.3497 C.ar    1  UNL1        0.0374
     16 C         143.4305  139.2312  162.5501 C.ar    1  UNL1        0.0031
     17 C         143.9624  138.9218  163.9181 C.ar    1  UNL1        0.0016
     18 C         143.0247  138.8363  165.0856 C.ar    1  UNL1        0.0191
     19 C         141.5551  139.0602  164.8853 C.ar    1  UNL1        0.0810
     20 N         140.6174  138.9747  166.0530 N.ar    1  UNL1       -0.2497
     21 C         142.9557  143.5779  158.5235 C.3     1  UNL1        0.0730
     22 N         142.6522  143.3802  159.9791 N.3     1  UNL1       -0.2720
     23 C         143.8349  143.1003  160.8583 C.3     1  UNL1        0.0768
     24 C         143.8637  142.8596  162.3386 C.3     1  UNL1        0.0434
     25 C         142.7169  142.8393  163.3052 C.ar    1  UNL1       -0.0230
     26 C         143.1835  142.5603  164.7033 C.ar    1  UNL1        0.0178
     27 C         142.1914  142.4967  165.8264 C.ar    1  UNL1        0.1182
     28 N         142.3535  142.2421  167.2957 N.ar    1  UNL1       -0.2121
     29 C         140.9950  142.3001  167.9290 C.ar    1  UNL1        0.2047
     30 O         139.9932  142.5906  166.8510 O.2     1  UNL1       -0.4385
     31 C         140.7325  142.7121  165.5517 C.ar    1  UNL1        0.1640
     32 C         140.2659  142.9910  164.1536 C.ar    1  UNL1        0.0346
     33 C         141.2581  143.0546  163.0304 C.ar    1  UNL1       -0.0216
     34 C         140.5858  143.3435  161.7210 C.3     1  UNL1        0.0434
     35 C         141.2063  143.4884  160.3630 C.3     1  UNL1        0.0768
     36 C         140.6916  142.1023  169.3846 C.3     1  UNL1        0.0688
     37 C         140.4658  143.5773  169.5379 C.3     1  UNL1        0.0092
     38 C         140.9174  140.6274  169.2313 C.3     1  UNL1        0.0092
     39 C         140.3882  141.9046  170.8402 C.3     1  UNL1        0.0092
@<TRIPOS>BOND
     1    10    11    1
     2    11    12   ar
     3    12    13   ar
     4    13    14   ar
     5    14    15   ar
     6    15     4    1
     7     4     5   ar
     8     5     6   ar
     9     6     7   ar
    10     7     3    1
    11     3     2    1
    12     2     1    1
    13     1    21    1
    14    21    22    1
    15    22    23    1
    16    23    24    1
    17    24    25    1
    18    25    26   ar
    19    26    27   ar
    20    27    28   ar
    21    28    29   ar
    22    29    36    1
    23    36    37    1
    24    36    38    1
    25    36    39    1
    26    29    30   ar
    27    30    31   ar
    28    31    32   ar
    29    32    33   ar
    30    33    34    1
    31    34    35    1
    32     7     8   ar
    33     8     9    1
    34    15    16   ar
    35    16    17   ar
    36    17    18   ar
    37    18    19   ar
    38    19    20   ar
    39    20    11   ar
    40    19    14   ar
    41     8     4   ar
    42    35    22    1
    43    33    25   ar
    44    31    27   ar
