@<TRIPOS>MOLECULE
*****
 43 47 0 0 0
SMALL
GASTEIGER

@<TRIPOS>ATOM
      1 C         141.5328  140.8519  162.4839 C.3     1  UNL1        0.0807
      2 C         141.8094  140.4392  163.8992 C.ar    1  UNL1        0.0375
      3 C         141.9875  141.4813  164.9632 C.ar    1  UNL1        0.0023
      4 C         142.2641  141.0686  166.3786 C.ar    1  UNL1        0.0183
      5 C         142.4422  142.1108  167.4426 C.ar    1  UNL1        0.0118
      6 C         142.7188  141.6980  168.8578 C.ar    1  UNL1        0.0685
      7 C         142.8174  140.2431  169.2091 C.ar    1  UNL1        0.0118
      8 C         142.6394  139.2009  168.1451 C.ar    1  UNL1        0.0199
      9 C         142.3627  139.6136  166.7299 C.ar    1  UNL1        0.0844
     10 N         142.1847  138.5714  165.6658 N.ar    1  UNL1       -0.2119
     11 C         141.9080  138.9842  164.2505 C.ar    1  UNL1        0.2211
     12 C         142.8969  142.7402  169.9219 C.1     1  UNL1        0.1004
     13 N         143.0750  143.7823  170.9859 N.1     1  UNL1       -0.1908
     14 O         141.7300  137.9420  163.1864 O.3     1  UNL1       -0.4563
     15 C         140.4308  137.2573  163.4918 C.3     1  UNL1        0.2542
     16 C         140.2574  140.4313  161.8156 C.ar    1  UNL1        0.0213
     17 C         138.9380  140.7240  162.4662 C.ar    1  UNL1       -0.0007
     18 C         137.6626  140.3033  161.7979 C.ar    1  UNL1        0.0030
     19 C         137.7067  139.5900  160.4791 C.ar    1  UNL1        0.0400
     20 C         139.0263  139.2973  159.8286 C.ar    1  UNL1        0.1721
     21 C         140.3016  139.7179  160.4968 C.ar    1  UNL1        0.1687
     22 O         141.6211  139.4252  159.8463 O.3     1  UNL1       -0.4687
     23 C         141.6653  138.7119  158.5275 C.3     1  UNL1        0.2526
     24 C         140.3899  138.2913  157.8592 C.3     1  UNL1        0.2526
     25 O         139.0705  138.5840  158.5098 O.3     1  UNL1       -0.4684
     26 C         142.5315  141.6853  161.7368 C.3     1  UNL1        0.1162
     27 O         143.5416  140.5830  161.8575 O.3     1  UNL1       -0.3820
     28 H         144.3682  140.8535  161.4281 H       1  UNL1        0.2107
     29 C         139.9649  144.5449  162.7292 C.ar    1  UNL1        0.2272
     30 C         140.9750  143.4426  162.8499 C.ar    1  UNL1        0.0559
     31 C         141.5213  142.7876  161.6161 C.ar    1  UNL1        0.0117
     32 C         141.0576  143.2349  160.2616 C.ar    1  UNL1        0.0559
     33 C         140.0475  144.3372  160.1409 C.ar    1  UNL1        0.2272
     34 N         139.5011  144.9922  161.3747 N.ar    1  UNL1       -0.1767
     35 C         138.4247  144.4737  164.8204 C.3     1  UNL1        0.2542
     36 O         139.4185  145.2000  163.9632 O.3     1  UNL1       -0.4561
     37 O         139.5837  144.7845  158.7862 O.3     1  UNL1       -0.4561
     38 C         140.4323  145.7163  157.9729 C.3     1  UNL1        0.2542
     39 C         143.5302  142.5187  160.9898 C.3     1  UNL1        0.0491
     40 C         144.8008  142.9480  161.6615 C.3     1  UNL1        0.0750
     41 N         144.8838  142.9799  163.1588 N.3     1  UNL1       -0.2702
     42 C         144.2400  144.0993  163.9220 C.3     1  UNL1        0.0897
     43 C         145.6107  141.8925  163.8930 C.3     1  UNL1        0.0897
@<TRIPOS>BOND
     1    35    36    1
     2    36    29    1
     3    29    30   ar
     4    30    31   ar
     5    31    26    1
     6    26    27    1
     7    26    39    1
     8    39    40    1
     9    40    41    1
    10    41    42    1
    11    41    43    1
    12    26     1    1
    13     1     2    1
    14     2     3   ar
    15     3     4   ar
    16     4     5   ar
    17     5     6   ar
    18     6    12    1
    19    12    13    3
    20     6     7   ar
    21     7     8   ar
    22     8     9   ar
    23     9    10   ar
    24    10    11   ar
    25    11    14    1
    26    14    15    1
    27     1    16    1
    28    16    17   ar
    29    17    18   ar
    30    18    19   ar
    31    19    20   ar
    32    20    21   ar
    33    21    22    1
    34    22    23    1
    35    23    24    1
    36    24    25    1
    37    31    32   ar
    38    32    33   ar
    39    33    37    1
    40    37    38    1
    41    33    34   ar
    42    34    29   ar
    43    11     2   ar
    44    21    16   ar
    45     9     4   ar
    46    25    20    1
    47    27    28    1
@<TRIPOS>MOLECULE
*****
 43 47 0 0 0
SMALL
GASTEIGER

@<TRIPOS>ATOM
      1 C         141.5618  140.8549  162.5300 C.3     1  UNL1        0.0807
      2 C         141.8383  140.4453  163.9464 C.ar    1  UNL1        0.0375
      3 C         142.0112  141.4898  165.0090 C.ar    1  UNL1        0.0023
      4 C         142.2877  141.0802  166.4253 C.ar    1  UNL1        0.0183
      5 C         142.4606  142.1247  167.4879 C.ar    1  UNL1        0.0118
      6 C         142.7371  141.7151  168.9041 C.ar    1  UNL1        0.0685
      7 C         142.8407  140.2611  169.2577 C.ar    1  UNL1        0.0118
      8 C         142.6678  139.2166  168.1951 C.ar    1  UNL1        0.0199
      9 C         142.3913  139.6262  166.7789 C.ar    1  UNL1        0.0844
     10 N         142.2184  138.5817  165.7162 N.ar    1  UNL1       -0.2119
     11 C         141.9419  138.9913  164.3000 C.ar    1  UNL1        0.2211
     12 C         142.9100  142.7596  169.9668 C.1     1  UNL1        0.1004
     13 N         143.0830  143.8040  171.0295 N.1     1  UNL1       -0.1908
     14 O         141.7690  137.9468  163.2373 O.3     1  UNL1       -0.4563
     15 C         140.4720  137.2578  163.5421 C.3     1  UNL1        0.2542
     16 C         140.2851  140.4356  161.8637 C.ar    1  UNL1        0.0213
     17 C         138.9666  140.7367  162.5123 C.ar    1  UNL1       -0.0007
     18 C         137.6897  140.3174  161.8460 C.ar    1  UNL1        0.0030
     19 C         137.7315  139.5969  160.5310 C.ar    1  UNL1        0.0400
     20 C         139.0501  139.2957  159.8824 C.ar    1  UNL1        0.1721
     21 C         140.3269  139.7150  160.5487 C.ar    1  UNL1        0.1687
     22 O         141.6454  139.4139  159.9001 O.3     1  UNL1       -0.4687
     23 C         141.6872  138.6934  158.5851 C.3     1  UNL1        0.2526
     24 C         140.4104  138.2740  157.9188 C.3     1  UNL1        0.2526
     25 O         139.0919  138.5752  158.5674 O.3     1  UNL1       -0.4684
     26 C         142.5621  141.6838  161.7801 C.3     1  UNL1        0.1162
     27 O         143.5751  140.5862  161.9181 O.3     1  UNL1       -0.3820
     28 H         144.4033  140.8549  161.4907 H       1  UNL1        0.2107
     29 C         140.0701  144.3028  160.1428 C.ar    1  UNL1        0.2272
     30 C         141.0831  143.2051  160.2808 C.ar    1  UNL1        0.0559
     31 C         141.5491  142.7814  161.6421 C.ar    1  UNL1        0.0117
     32 C         141.0021  143.4553  162.8655 C.ar    1  UNL1        0.0559
     33 C         139.9891  144.5529  162.7275 C.ar    1  UNL1        0.2272
     34 N         139.5231  144.9767  161.3662 N.ar    1  UNL1       -0.1767
     35 C         140.4170  145.6994  157.9796 C.3     1  UNL1        0.2542
     36 O         139.6041  144.7265  158.7814 O.3     1  UNL1       -0.4561
     37 O         139.4421  145.2269  163.9509 O.3     1  UNL1       -0.4561
     38 C         138.9961  144.4050  165.1238 C.3     1  UNL1        0.2542
     39 C         143.5624  142.5127  161.0302 C.3     1  UNL1        0.0491
     40 C         144.7520  143.0813  161.7453 C.3     1  UNL1        0.0750
     41 N         144.8412  142.9932  163.2401 N.3     1  UNL1       -0.2702
     42 C         144.1880  144.0397  164.0934 C.3     1  UNL1        0.0897
     43 C         145.5837  141.8587  163.8816 C.3     1  UNL1        0.0897
@<TRIPOS>BOND
     1    35    36    1
     2    36    29    1
     3    29    30   ar
     4    30    31   ar
     5    31    26    1
     6    26    27    1
     7    26    39    1
     8    39    40    1
     9    40    41    1
    10    41    42    1
    11    41    43    1
    12    26     1    1
    13     1     2    1
    14     2     3   ar
    15     3     4   ar
    16     4     5   ar
    17     5     6   ar
    18     6    12    1
    19    12    13    3
    20     6     7   ar
    21     7     8   ar
    22     8     9   ar
    23     9    10   ar
    24    10    11   ar
    25    11    14    1
    26    14    15    1
    27     1    16    1
    28    16    17   ar
    29    17    18   ar
    30    18    19   ar
    31    19    20   ar
    32    20    21   ar
    33    21    22    1
    34    22    23    1
    35    23    24    1
    36    24    25    1
    37    31    32   ar
    38    32    33   ar
    39    33    37    1
    40    37    38    1
    41    33    34   ar
    42    34    29   ar
    43    11     2   ar
    44    21    16   ar
    45     9     4   ar
    46    25    20    1
    47    27    28    1
@<TRIPOS>MOLECULE
*****
 43 47 0 0 0
SMALL
GASTEIGER

@<TRIPOS>ATOM
      1 C         140.7484  140.7910  162.6909 C.3     1  UNL1        0.0807
      2 C         140.1960  140.4954  164.0538 C.ar    1  UNL1        0.0375
      3 C         140.8450  141.0858  165.2704 C.ar    1  UNL1        0.0023
      4 C         140.2925  140.7901  166.6333 C.ar    1  UNL1        0.0183
      5 C         140.9415  141.3805  167.8499 C.ar    1  UNL1        0.0118
      6 C         140.3891  141.0849  169.2127 C.ar    1  UNL1        0.0685
      7 C         139.1877  140.1988  169.3590 C.ar    1  UNL1        0.0118
      8 C         138.5387  139.6084  168.1424 C.ar    1  UNL1        0.0199
      9 C         139.0911  139.9040  166.7796 C.ar    1  UNL1        0.0844
     10 N         138.4421  139.3136  165.5629 N.ar    1  UNL1       -0.2119
     11 C         138.9946  139.6093  164.2000 C.ar    1  UNL1        0.2211
     12 C         141.0381  141.6753  170.4294 C.1     1  UNL1        0.1004
     13 N         141.6871  142.2657  171.6461 N.1     1  UNL1       -0.1908
     14 O         138.3456  139.0188  162.9833 O.3     1  UNL1       -0.4563
     15 C         138.7613  137.5780  162.9512 C.3     1  UNL1        0.2542
     16 C         141.5776  139.7638  161.9787 C.ar    1  UNL1        0.0213
     17 C         142.8057  139.2055  162.6343 C.ar    1  UNL1       -0.0007
     18 C         143.6350  138.1782  161.9220 C.ar    1  UNL1        0.0030
     19 C         143.2359  137.7093  160.5542 C.ar    1  UNL1        0.0400
     20 C         142.0076  138.2676  159.8987 C.ar    1  UNL1        0.1721
     21 C         141.1785  139.2949  160.6109 C.ar    1  UNL1        0.1687
     22 O         139.9503  139.8531  159.9553 O.3     1  UNL1       -0.4687
     23 C         139.5513  139.3842  158.5875 C.3     1  UNL1        0.2526
     24 C         140.3804  138.3570  157.8753 C.3     1  UNL1        0.2526
     25 O         141.6086  137.7987  158.5309 O.3     1  UNL1       -0.4684
     26 C         140.4717  142.1139  162.0403 C.3     1  UNL1        0.1162
     27 O         139.0159  141.7642  161.9484 O.3     1  UNL1       -0.3820
     28 H         138.5334  142.4954  161.5320 H       1  UNL1        0.2107
     29 C         143.9825  143.1881  163.5469 C.ar    1  UNL1        0.2272
     30 C         142.5268  142.8384  163.4551 C.ar    1  UNL1        0.0559
     31 C         141.9275  142.4636  162.1321 C.ar    1  UNL1        0.0117
     32 C         142.7839  142.4385  160.9009 C.ar    1  UNL1        0.0559
     33 C         144.2397  142.7882  160.9928 C.ar    1  UNL1        0.2272
     34 N         144.8390  143.1630  162.3157 N.ar    1  UNL1       -0.1767
     35 C         144.0288  142.9790  166.1361 C.3     1  UNL1        0.2542
     36 O         144.5818  143.5629  164.8699 O.3     1  UNL1       -0.4561
     37 O         145.0962  142.7631  159.7615 O.3     1  UNL1       -0.4561
     38 C         144.4727  142.5206  158.4190 C.3     1  UNL1        0.2542
     39 C         140.1949  143.4368  161.3896 C.3     1  UNL1        0.0491
     40 C         139.8762  144.6354  162.2332 C.3     1  UNL1        0.0750
     41 N         138.9915  144.4922  163.4360 N.3     1  UNL1       -0.2702
     42 C         137.5150  144.2936  163.2617 C.3     1  UNL1        0.0897
     43 C         139.5833  144.5475  164.8132 C.3     1  UNL1        0.0897
@<TRIPOS>BOND
     1    35    36    1
     2    36    29    1
     3    29    30   ar
     4    30    31   ar
     5    31    26    1
     6    26    27    1
     7    26    39    1
     8    39    40    1
     9    40    41    1
    10    41    42    1
    11    41    43    1
    12    26     1    1
    13     1     2    1
    14     2     3   ar
    15     3     4   ar
    16     4     5   ar
    17     5     6   ar
    18     6    12    1
    19    12    13    3
    20     6     7   ar
    21     7     8   ar
    22     8     9   ar
    23     9    10   ar
    24    10    11   ar
    25    11    14    1
    26    14    15    1
    27     1    16    1
    28    16    17   ar
    29    17    18   ar
    30    18    19   ar
    31    19    20   ar
    32    20    21   ar
    33    21    22    1
    34    22    23    1
    35    23    24    1
    36    24    25    1
    37    31    32   ar
    38    32    33   ar
    39    33    37    1
    40    37    38    1
    41    33    34   ar
    42    34    29   ar
    43    11     2   ar
    44    21    16   ar
    45     9     4   ar
    46    25    20    1
    47    27    28    1
@<TRIPOS>MOLECULE
*****
 43 47 0 0 0
SMALL
GASTEIGER

@<TRIPOS>ATOM
      1 C         140.7596  140.7891  162.6402 C.3     1  UNL1        0.0807
      2 C         140.1935  140.4884  163.9964 C.ar    1  UNL1        0.0375
      3 C         140.8438  141.0559  165.2232 C.ar    1  UNL1        0.0023
      4 C         140.2777  140.7552  166.5794 C.ar    1  UNL1        0.0183
      5 C         140.9279  141.3227  167.8062 C.ar    1  UNL1        0.0118
      6 C         140.3619  141.0220  169.1623 C.ar    1  UNL1        0.0685
      7 C         139.1455  140.1538  169.2916 C.ar    1  UNL1        0.0118
      8 C         138.4953  139.5863  168.0648 C.ar    1  UNL1        0.0199
      9 C         139.0613  139.8870  166.7087 C.ar    1  UNL1        0.0844
     10 N         138.4111  139.3195  165.4818 N.ar    1  UNL1       -0.2119
     11 C         138.9772  139.6202  164.1257 C.ar    1  UNL1        0.2211
     12 C         141.0121  141.5895  170.3892 C.1     1  UNL1        0.1004
     13 N         141.6623  142.1570  171.6160 N.1     1  UNL1       -0.1908
     14 O         138.3269  139.0527  162.8988 O.3     1  UNL1       -0.4563
     15 C         138.7145  137.6042  162.8581 C.3     1  UNL1        0.2542
     16 C         141.5504  139.7450  161.9092 C.ar    1  UNL1        0.0213
     17 C         142.7614  139.1355  162.5511 C.ar    1  UNL1       -0.0007
     18 C         143.5523  138.0913  161.8201 C.ar    1  UNL1        0.0030
     19 C         143.1321  137.6567  160.4473 C.ar    1  UNL1        0.0400
     20 C         141.9211  138.2662  159.8055 C.ar    1  UNL1        0.1721
     21 C         141.1302  139.3104  160.5364 C.ar    1  UNL1        0.1687
     22 O         139.9193  139.9199  159.8946 O.3     1  UNL1       -0.4687
     23 C         139.4991  139.4852  158.5218 C.3     1  UNL1        0.2526
     24 C         140.2899  138.4411  157.7909 C.3     1  UNL1        0.2526
     25 O         141.5009  137.8316  158.4327 O.3     1  UNL1       -0.4684
     26 C         140.5348  142.1340  162.0151 C.3     1  UNL1        0.1162
     27 O         139.0639  141.8510  161.9352 O.3     1  UNL1       -0.3820
     28 H         138.6098  142.6100  161.5369 H       1  UNL1        0.2107
     29 C         144.3025  142.7355  160.9231 C.ar    1  UNL1        0.2272
     30 C         142.8316  142.4526  160.8433 C.ar    1  UNL1        0.0559
     31 C         142.0057  142.4169  162.0949 C.ar    1  UNL1        0.0117
     32 C         142.6507  142.6643  163.4263 C.ar    1  UNL1        0.0559
     33 C         144.1216  142.9472  163.5061 C.ar    1  UNL1        0.2272
     34 N         144.9475  142.9828  162.2545 N.ar    1  UNL1       -0.1767
     35 C         144.5101  142.4068  158.3543 C.3     1  UNL1        0.2542
     36 O         145.1285  142.7712  159.6714 O.3     1  UNL1       -0.4561
     37 O         144.7666  143.1945  164.8377 O.3     1  UNL1       -0.4561
     38 C         143.9770  143.0095  166.0995 C.3     1  UNL1        0.2542
     39 C         140.3101  143.4788  161.3899 C.3     1  UNL1        0.0491
     40 C         139.9956  144.6642  162.2535 C.3     1  UNL1        0.0750
     41 N         139.0813  144.5115  163.4328 N.3     1  UNL1       -0.2702
     42 C         137.5990  144.4139  163.2250 C.3     1  UNL1        0.0897
     43 C         139.6493  144.4564  164.8200 C.3     1  UNL1        0.0897
@<TRIPOS>BOND
     1    35    36    1
     2    36    29    1
     3    29    30   ar
     4    30    31   ar
     5    31    26    1
     6    26    27    1
     7    26    39    1
     8    39    40    1
     9    40    41    1
    10    41    42    1
    11    41    43    1
    12    26     1    1
    13     1     2    1
    14     2     3   ar
    15     3     4   ar
    16     4     5   ar
    17     5     6   ar
    18     6    12    1
    19    12    13    3
    20     6     7   ar
    21     7     8   ar
    22     8     9   ar
    23     9    10   ar
    24    10    11   ar
    25    11    14    1
    26    14    15    1
    27     1    16    1
    28    16    17   ar
    29    17    18   ar
    30    18    19   ar
    31    19    20   ar
    32    20    21   ar
    33    21    22    1
    34    22    23    1
    35    23    24    1
    36    24    25    1
    37    31    32   ar
    38    32    33   ar
    39    33    37    1
    40    37    38    1
    41    33    34   ar
    42    34    29   ar
    43    11     2   ar
    44    21    16   ar
    45     9     4   ar
    46    25    20    1
    47    27    28    1
@<TRIPOS>MOLECULE
*****
 43 47 0 0 0
SMALL
GASTEIGER

@<TRIPOS>ATOM
      1 C         141.3689  142.4142  162.4042 C.3     1  UNL1        0.0807
      2 C         141.8577  142.3632  163.8214 C.ar    1  UNL1        0.0375
      3 C         141.0153  141.7197  164.8826 C.ar    1  UNL1        0.0023
      4 C         141.5042  141.6687  166.2999 C.ar    1  UNL1        0.0183
      5 C         140.6618  141.0253  167.3611 C.ar    1  UNL1        0.0118
      6 C         141.1507  140.9743  168.7783 C.ar    1  UNL1        0.0685
      7 C         142.4820  141.5667  169.1342 C.ar    1  UNL1        0.0118
      8 C         143.3244  142.2102  168.0729 C.ar    1  UNL1        0.0199
      9 C         142.8355  142.2612  166.6558 C.ar    1  UNL1        0.0844
     10 N         143.6779  142.9046  165.5944 N.ar    1  UNL1       -0.2119
     11 C         143.1890  142.9556  164.1773 C.ar    1  UNL1        0.2211
     12 C         140.3083  140.3308  169.8396 C.1     1  UNL1        0.1004
     13 N         139.4659  139.6873  170.9009 N.1     1  UNL1       -0.1908
     14 O         144.0314  143.5991  163.1160 O.3     1  UNL1       -0.4563
     15 C         143.8198  145.0771  163.2599 C.3     1  UNL1        0.2542
     16 C         142.2520  141.9392  161.2886 C.ar    1  UNL1        0.0213
     17 C         142.5688  142.8530  160.1421 C.ar    1  UNL1       -0.0007
     18 C         143.4520  142.3780  159.0264 C.ar    1  UNL1        0.0030
     19 C         144.0183  140.9894  159.0574 C.ar    1  UNL1        0.0400
     20 C         143.7014  140.0756  160.2041 C.ar    1  UNL1        0.1721
     21 C         142.8182  140.5506  161.3196 C.ar    1  UNL1        0.1687
     22 O         142.5014  139.6368  162.4662 O.3     1  UNL1       -0.4687
     23 C         143.0677  138.2482  162.4972 C.3     1  UNL1        0.2526
     24 C         143.9508  137.7732  161.3817 C.3     1  UNL1        0.2526
     25 O         144.2676  138.6870  160.2351 O.3     1  UNL1       -0.4684
     26 C         139.9968  142.9401  162.1026 C.3     1  UNL1        0.1162
     27 O         140.4323  144.3142  162.5178 O.3     1  UNL1       -0.3820
     28 H         139.6897  144.9310  162.4234 H       1  UNL1        0.2107
     29 C         138.9269  139.1239  162.3062 C.ar    1  UNL1        0.2272
     30 C         139.3624  140.4979  162.7214 C.ar    1  UNL1        0.0559
     31 C         139.5614  141.5661  161.6873 C.ar    1  UNL1        0.0117
     32 C         139.3249  141.2603  160.2380 C.ar    1  UNL1        0.0559
     33 C         138.8895  139.8862  159.8228 C.ar    1  UNL1        0.2272
     34 N         138.6905  138.8180  160.8569 N.ar    1  UNL1       -0.1767
     35 C         138.9152  138.3749  164.7939 C.3     1  UNL1        0.2542
     36 O         138.7279  138.0557  163.3403 O.3     1  UNL1       -0.4561
     37 O         138.6530  139.5804  158.3734 O.3     1  UNL1       -0.4561
     38 C         138.4829  140.6992  157.3889 C.3     1  UNL1        0.2542
     39 C         138.6248  143.4661  161.8010 C.3     1  UNL1        0.0491
     40 C         137.8670  144.2282  162.8473 C.3     1  UNL1        0.0750
     41 N         137.9975  143.8495  164.2928 N.3     1  UNL1       -0.2702
     42 C         137.5510  142.4947  164.7565 C.3     1  UNL1        0.0897
     43 C         138.5746  144.8256  165.2747 C.3     1  UNL1        0.0897
@<TRIPOS>BOND
     1    35    36    1
     2    36    29    1
     3    29    30   ar
     4    30    31   ar
     5    31    26    1
     6    26    27    1
     7    26    39    1
     8    39    40    1
     9    40    41    1
    10    41    42    1
    11    41    43    1
    12    26     1    1
    13     1     2    1
    14     2     3   ar
    15     3     4   ar
    16     4     5   ar
    17     5     6   ar
    18     6    12    1
    19    12    13    3
    20     6     7   ar
    21     7     8   ar
    22     8     9   ar
    23     9    10   ar
    24    10    11   ar
    25    11    14    1
    26    14    15    1
    27     1    16    1
    28    16    17   ar
    29    17    18   ar
    30    18    19   ar
    31    19    20   ar
    32    20    21   ar
    33    21    22    1
    34    22    23    1
    35    23    24    1
    36    24    25    1
    37    31    32   ar
    38    32    33   ar
    39    33    37    1
    40    37    38    1
    41    33    34   ar
    42    34    29   ar
    43    11     2   ar
    44    21    16   ar
    45     9     4   ar
    46    25    20    1
    47    27    28    1
@<TRIPOS>MOLECULE
*****
 43 47 0 0 0
SMALL
GASTEIGER

@<TRIPOS>ATOM
      1 C         142.2016  141.3943  162.9173 C.3     1  UNL1        0.0807
      2 C         142.4538  141.6293  164.3773 C.ar    1  UNL1        0.0375
      3 C         141.6023  140.9450  165.4051 C.ar    1  UNL1        0.0023
      4 C         141.8544  141.1799  166.8650 C.ar    1  UNL1        0.0183
      5 C         141.0029  140.4956  167.8929 C.ar    1  UNL1        0.0118
      6 C         141.2551  140.7306  169.3527 C.ar    1  UNL1        0.0685
      7 C         142.3588  141.6499  169.7847 C.ar    1  UNL1        0.0118
      8 C         143.2104  142.3343  168.7568 C.ar    1  UNL1        0.0199
      9 C         142.9582  142.0993  167.2970 C.ar    1  UNL1        0.0844
     10 N         143.8097  142.7836  166.2691 N.ar    1  UNL1       -0.2119
     11 C         143.5575  142.5486  164.8092 C.ar    1  UNL1        0.2211
     12 C         140.4035  140.0462  170.3806 C.1     1  UNL1        0.1004
     13 N         139.5520  139.3619  171.4085 N.1     1  UNL1       -0.1908
     14 O         144.4091  143.2330  163.7813 O.3     1  UNL1       -0.4563
     15 C         143.9426  144.6580  163.7404 C.3     1  UNL1        0.2542
     16 C         141.5736  142.4703  162.0820 C.ar    1  UNL1        0.0213
     17 C         142.2730  142.9697  160.8527 C.ar    1  UNL1       -0.0007
     18 C         141.6449  144.0457  160.0173 C.ar    1  UNL1        0.0030
     19 C         140.3174  144.6223  160.4114 C.ar    1  UNL1        0.0400
     20 C         139.6180  144.1228  161.6408 C.ar    1  UNL1        0.1721
     21 C         140.2460  143.0469  162.4761 C.ar    1  UNL1        0.1687
     22 O         139.5466  142.5474  163.7054 O.3     1  UNL1       -0.4687
     23 C         138.2191  143.1240  164.0994 C.3     1  UNL1        0.2526
     24 C         137.5910  144.2000  163.2641 C.3     1  UNL1        0.2526
     25 O         138.2904  144.6994  162.0348 O.3     1  UNL1       -0.4684
     26 C         142.5776  140.0834  162.2928 C.3     1  UNL1        0.1162
     27 O         144.0187  140.4995  162.2867 O.3     1  UNL1       -0.3820
     28 H         144.5585  139.7900  161.9047 H       1  UNL1        0.2107
     29 C         139.0994  138.6294  163.5331 C.ar    1  UNL1        0.2272
     30 C         140.5405  139.0456  163.5270 C.ar    1  UNL1        0.0559
     31 C         141.1365  139.6672  162.2989 C.ar    1  UNL1        0.0117
     32 C         140.2913  139.8727  161.0768 C.ar    1  UNL1        0.0559
     33 C         138.8502  139.4565  161.0829 C.ar    1  UNL1        0.2272
     34 N         138.2543  138.8349  162.3110 N.ar    1  UNL1       -0.1767
     35 C         138.2296  138.8510  165.9712 C.3     1  UNL1        0.2542
     36 O         138.5035  138.0077  164.7613 O.3     1  UNL1       -0.4561
     37 O         138.0051  139.6621  159.8607 O.3     1  UNL1       -0.4561
     38 C         138.5364  140.4598  158.7070 C.3     1  UNL1        0.2542
     39 C         142.9535  138.7724  161.6683 C.3     1  UNL1        0.0491
     40 C         143.9503  138.7338  160.5481 C.3     1  UNL1        0.0750
     41 N         143.5554  139.1951  159.1765 N.3     1  UNL1       -0.2702
     42 C         144.0508  140.5120  158.6566 C.3     1  UNL1        0.0897
     43 C         142.6652  138.3395  158.3248 C.3     1  UNL1        0.0897
@<TRIPOS>BOND
     1    35    36    1
     2    36    29    1
     3    29    30   ar
     4    30    31   ar
     5    31    26    1
     6    26    27    1
     7    26    39    1
     8    39    40    1
     9    40    41    1
    10    41    42    1
    11    41    43    1
    12    26     1    1
    13     1     2    1
    14     2     3   ar
    15     3     4   ar
    16     4     5   ar
    17     5     6   ar
    18     6    12    1
    19    12    13    3
    20     6     7   ar
    21     7     8   ar
    22     8     9   ar
    23     9    10   ar
    24    10    11   ar
    25    11    14    1
    26    14    15    1
    27     1    16    1
    28    16    17   ar
    29    17    18   ar
    30    18    19   ar
    31    19    20   ar
    32    20    21   ar
    33    21    22    1
    34    22    23    1
    35    23    24    1
    36    24    25    1
    37    31    32   ar
    38    32    33   ar
    39    33    37    1
    40    37    38    1
    41    33    34   ar
    42    34    29   ar
    43    11     2   ar
    44    21    16   ar
    45     9     4   ar
    46    25    20    1
    47    27    28    1
@<TRIPOS>MOLECULE
*****
 43 47 0 0 0
SMALL
GASTEIGER

@<TRIPOS>ATOM
      1 C         141.3982  142.3947  162.4354 C.3     1  UNL1        0.0807
      2 C         141.8862  142.3333  163.8525 C.ar    1  UNL1        0.0375
      3 C         141.0524  141.6638  164.9044 C.ar    1  UNL1        0.0023
      4 C         141.5404  141.6024  166.3216 C.ar    1  UNL1        0.0183
      5 C         140.7066  140.9329  167.3735 C.ar    1  UNL1        0.0118
      6 C         141.1946  140.8716  168.7906 C.ar    1  UNL1        0.0685
      7 C         142.5162  141.4797  169.1557 C.ar    1  UNL1        0.0118
      8 C         143.3500  142.1493  168.1038 C.ar    1  UNL1        0.0199
      9 C         142.8620  142.2106  166.6867 C.ar    1  UNL1        0.0844
     10 N         143.6958  142.8801  165.6347 N.ar    1  UNL1       -0.2119
     11 C         143.2078  142.9415  164.2176 C.ar    1  UNL1        0.2211
     12 C         140.3608  140.2020  169.8426 C.1     1  UNL1        0.1004
     13 N         139.5272  139.5325  170.8946 N.1     1  UNL1       -0.1908
     14 O         144.0416  143.6110  163.1656 O.3     1  UNL1       -0.4563
     15 C         143.7506  145.0781  163.2794 C.3     1  UNL1        0.2542
     16 C         142.2919  141.9527  161.3147 C.ar    1  UNL1        0.0213
     17 C         142.5966  142.8903  160.1842 C.ar    1  UNL1       -0.0007
     18 C         143.4903  142.4484  159.0634 C.ar    1  UNL1        0.0030
     19 C         144.0793  141.0689  159.0732 C.ar    1  UNL1        0.0400
     20 C         143.7745  140.1313  160.2038 C.ar    1  UNL1        0.1721
     21 C         142.8808  140.5732  161.3245 C.ar    1  UNL1        0.1687
     22 O         142.5761  139.6356  162.4549 O.3     1  UNL1       -0.4687
     23 C         143.1650  138.2561  162.4647 C.3     1  UNL1        0.2526
     24 C         144.0587  137.8142  161.3440 C.3     1  UNL1        0.2526
     25 O         144.3634  138.7518  160.2136 O.3     1  UNL1       -0.4684
     26 C         140.0166  142.8980  162.1390 C.3     1  UNL1        0.1162
     27 O         140.4231  144.2731  162.5794 O.3     1  UNL1       -0.3820
     28 H         139.6684  144.8763  162.4936 H       1  UNL1        0.2107
     29 C         138.9670  139.8653  159.8043 C.ar    1  UNL1        0.2272
     30 C         139.3735  141.2404  160.2446 C.ar    1  UNL1        0.0559
     31 C         139.6101  141.5229  161.6986 C.ar    1  UNL1        0.0117
     32 C         139.4403  140.4304  162.7122 C.ar    1  UNL1        0.0559
     33 C         139.0338  139.0553  162.2718 C.ar    1  UNL1        0.2272
     34 N         138.7972  138.7728  160.8179 N.ar    1  UNL1       -0.1767
     35 C         138.1097  140.6303  157.4740 C.3     1  UNL1        0.2542
     36 O         138.7304  139.5828  158.3502 O.3     1  UNL1       -0.4561
     37 O         138.8640  137.9627  163.2855 O.3     1  UNL1       -0.4561
     38 C         139.8860  137.7784  164.3679 C.3     1  UNL1        0.2542
     39 C         138.6350  143.4013  161.8426 C.3     1  UNL1        0.0491
     40 C         137.8942  144.2069  162.8684 C.3     1  UNL1        0.0750
     41 N         137.9305  143.7994  164.3115 N.3     1  UNL1       -0.2702
     42 C         137.4605  142.4340  164.7173 C.3     1  UNL1        0.0897
     43 C         138.4369  144.7572  165.3488 C.3     1  UNL1        0.0897
@<TRIPOS>BOND
     1    35    36    1
     2    36    29    1
     3    29    30   ar
     4    30    31   ar
     5    31    26    1
     6    26    27    1
     7    26    39    1
     8    39    40    1
     9    40    41    1
    10    41    42    1
    11    41    43    1
    12    26     1    1
    13     1     2    1
    14     2     3   ar
    15     3     4   ar
    16     4     5   ar
    17     5     6   ar
    18     6    12    1
    19    12    13    3
    20     6     7   ar
    21     7     8   ar
    22     8     9   ar
    23     9    10   ar
    24    10    11   ar
    25    11    14    1
    26    14    15    1
    27     1    16    1
    28    16    17   ar
    29    17    18   ar
    30    18    19   ar
    31    19    20   ar
    32    20    21   ar
    33    21    22    1
    34    22    23    1
    35    23    24    1
    36    24    25    1
    37    31    32   ar
    38    32    33   ar
    39    33    37    1
    40    37    38    1
    41    33    34   ar
    42    34    29   ar
    43    11     2   ar
    44    21    16   ar
    45     9     4   ar
    46    25    20    1
    47    27    28    1
@<TRIPOS>MOLECULE
*****
 43 47 0 0 0
SMALL
GASTEIGER

@<TRIPOS>ATOM
      1 C         141.2492  140.6145  163.0032 C.3     1  UNL1        0.0807
      2 C         141.4756  140.3837  164.4680 C.ar    1  UNL1        0.0375
      3 C         140.7619  141.2303  165.4797 C.ar    1  UNL1        0.0023
      4 C         140.9883  140.9995  166.9445 C.ar    1  UNL1        0.0183
      5 C         140.2746  141.8461  167.9563 C.ar    1  UNL1        0.0118
      6 C         140.5011  141.6153  169.4210 C.ar    1  UNL1        0.0685
      7 C         141.4412  140.5378  169.8739 C.ar    1  UNL1        0.0118
      8 C         142.1549  139.6911  168.8621 C.ar    1  UNL1        0.0199
      9 C         141.9285  139.9220  167.3974 C.ar    1  UNL1        0.0844
     10 N         142.6422  139.0753  166.3856 N.ar    1  UNL1       -0.2119
     11 C         142.4157  139.3062  164.9209 C.ar    1  UNL1        0.2211
     12 C         139.7873  142.4620  170.4329 C.1     1  UNL1        0.1004
     13 N         139.0737  143.3086  171.4447 N.1     1  UNL1       -0.1908
     14 O         143.1295  138.4595  163.9090 O.3     1  UNL1       -0.4563
     15 C         144.5293  138.9935  163.8369 C.3     1  UNL1        0.2542
     16 C         142.3187  141.2579  162.1712 C.ar    1  UNL1        0.0213
     17 C         142.8409  140.5598  160.9506 C.ar    1  UNL1       -0.0007
     18 C         143.9104  141.2032  160.1185 C.ar    1  UNL1        0.0030
     19 C         144.4577  142.5446  160.5072 C.ar    1  UNL1        0.0400
     20 C         143.9354  143.2427  161.7278 C.ar    1  UNL1        0.1721
     21 C         142.8659  142.5993  162.5598 C.ar    1  UNL1        0.1687
     22 O         142.3437  143.2974  163.7804 O.3     1  UNL1       -0.4687
     23 C         142.8909  144.6388  164.1691 C.3     1  UNL1        0.2526
     24 C         143.9604  145.2822  163.3371 C.3     1  UNL1        0.2526
     25 O         144.4826  144.5841  162.1165 O.3     1  UNL1       -0.4684
     26 C         139.9533  140.2019  162.3704 C.3     1  UNL1        0.1162
     27 O         140.3189  138.7598  162.5619 O.3     1  UNL1       -0.3820
     28 H         139.6076  138.1974  162.2174 H       1  UNL1        0.2107
     29 C         139.4741  143.7550  160.6688 C.ar    1  UNL1        0.2272
     30 C         139.8398  142.3129  160.8603 C.ar    1  UNL1        0.0559
     31 C         139.5876  141.6440  162.1789 C.ar    1  UNL1        0.0117
     32 C         138.9699  142.4171  163.3061 C.ar    1  UNL1        0.0559
     33 C         138.6042  143.8592  163.1146 C.ar    1  UNL1        0.2272
     34 N         138.8564  144.5282  161.7960 N.ar    1  UNL1       -0.1767
     35 C         139.5668  143.6511  158.0744 C.3     1  UNL1        0.2542
     36 O         139.7263  144.4240  159.3501 O.3     1  UNL1       -0.4561
     37 O         137.9864  144.6324  164.2419 O.3     1  UNL1       -0.4561
     38 C         138.7199  144.7778  165.5422 C.3     1  UNL1        0.2542
     39 C         138.6573  139.7893  161.7377 C.3     1  UNL1        0.0491
     40 C         138.6509  138.7693  160.6380 C.3     1  UNL1        0.0750
     41 N         138.8047  139.2042  159.2107 N.3     1  UNL1       -0.2702
     42 C         137.9420  140.3030  158.6644 C.3     1  UNL1        0.0897
     43 C         139.8211  138.5404  158.3297 C.3     1  UNL1        0.0897
@<TRIPOS>BOND
     1    35    36    1
     2    36    29    1
     3    29    30   ar
     4    30    31   ar
     5    31    26    1
     6    26    27    1
     7    26    39    1
     8    39    40    1
     9    40    41    1
    10    41    42    1
    11    41    43    1
    12    26     1    1
    13     1     2    1
    14     2     3   ar
    15     3     4   ar
    16     4     5   ar
    17     5     6   ar
    18     6    12    1
    19    12    13    3
    20     6     7   ar
    21     7     8   ar
    22     8     9   ar
    23     9    10   ar
    24    10    11   ar
    25    11    14    1
    26    14    15    1
    27     1    16    1
    28    16    17   ar
    29    17    18   ar
    30    18    19   ar
    31    19    20   ar
    32    20    21   ar
    33    21    22    1
    34    22    23    1
    35    23    24    1
    36    24    25    1
    37    31    32   ar
    38    32    33   ar
    39    33    37    1
    40    37    38    1
    41    33    34   ar
    42    34    29   ar
    43    11     2   ar
    44    21    16   ar
    45     9     4   ar
    46    25    20    1
    47    27    28    1
@<TRIPOS>MOLECULE
*****
 43 47 0 0 0
SMALL
GASTEIGER

@<TRIPOS>ATOM
      1 C         141.4215  140.7746  162.9420 C.3     1  UNL1        0.0807
      2 C         141.6026  140.4982  164.4052 C.ar    1  UNL1        0.0375
      3 C         140.8947  141.3444  165.4215 C.ar    1  UNL1        0.0023
      4 C         141.0758  141.0680  166.8847 C.ar    1  UNL1        0.0183
      5 C         140.3679  141.9142  167.9010 C.ar    1  UNL1        0.0118
      6 C         140.5490  141.6378  169.3641 C.ar    1  UNL1        0.0685
      7 C         141.4380  140.5153  169.8109 C.ar    1  UNL1        0.0118
      8 C         142.1459  139.6692  168.7946 C.ar    1  UNL1        0.0199
      9 C         141.9648  139.9455  167.3315 C.ar    1  UNL1        0.0844
     10 N         142.6727  139.0994  166.3151 N.ar    1  UNL1       -0.2119
     11 C         142.4916  139.3757  164.8520 C.ar    1  UNL1        0.2211
     12 C         139.8411  142.4840  170.3805 C.1     1  UNL1        0.1004
     13 N         139.1333  143.3301  171.3968 N.1     1  UNL1       -0.1908
     14 O         143.1995  138.5296  163.8356 O.3     1  UNL1       -0.4563
     15 C         144.5913  139.0801  163.7367 C.3     1  UNL1        0.2542
     16 C         142.4894  141.4994  162.1778 C.ar    1  UNL1        0.0213
     17 C         143.0943  142.7519  162.7392 C.ar    1  UNL1       -0.0007
     18 C         144.1624  143.4768  161.9750 C.ar    1  UNL1        0.0030
     19 C         144.6254  142.9491  160.6494 C.ar    1  UNL1        0.0400
     20 C         144.0205  141.6965  160.0880 C.ar    1  UNL1        0.1721
     21 C         142.9525  140.9717  160.8522 C.ar    1  UNL1        0.1687
     22 O         142.3476  139.7192  160.2908 O.3     1  UNL1       -0.4687
     23 C         142.8107  139.1915  158.9653 C.3     1  UNL1        0.2526
     24 C         143.8786  139.9163  158.2011 C.3     1  UNL1        0.2526
     25 O         144.4835  141.1688  158.7625 O.3     1  UNL1       -0.4684
     26 C         140.1724  140.3260  162.2430 C.3     1  UNL1        0.1162
     27 O         140.6478  138.9047  162.3054 O.3     1  UNL1       -0.3820
     28 H         139.9888  138.3249  161.8927 H       1  UNL1        0.2107
     29 C         139.4699  143.9892  160.8875 C.ar    1  UNL1        0.2272
     30 C         139.9453  142.5680  160.9499 C.ar    1  UNL1        0.0559
     31 C         139.6969  141.7473  162.1806 C.ar    1  UNL1        0.0117
     32 C         138.9729  142.3479  163.3490 C.ar    1  UNL1        0.0559
     33 C         138.4975  143.7692  163.2866 C.ar    1  UNL1        0.2272
     34 N         138.7459  144.5899  162.0559 N.ar    1  UNL1       -0.1767
     35 C         140.1895  144.1474  158.3961 C.3     1  UNL1        0.2542
     36 O         139.7184  144.8099  159.6567 O.3     1  UNL1       -0.4561
     37 O         137.7735  144.3698  164.4551 O.3     1  UNL1       -0.4561
     38 C         138.5490  144.9340  165.6084 C.3     1  UNL1        0.2542
     39 C         138.9232  139.8775  161.5440 C.3     1  UNL1        0.0491
     40 C         139.0050  138.8732  160.4328 C.3     1  UNL1        0.0750
     41 N         138.8490  139.3165  159.0084 N.3     1  UNL1       -0.2702
     42 C         139.5543  138.5761  157.9110 C.3     1  UNL1        0.0897
     43 C         137.9876  140.5001  158.6813 C.3     1  UNL1        0.0897
@<TRIPOS>BOND
     1    35    36    1
     2    36    29    1
     3    29    30   ar
     4    30    31   ar
     5    31    26    1
     6    26    27    1
     7    26    39    1
     8    39    40    1
     9    40    41    1
    10    41    42    1
    11    41    43    1
    12    26     1    1
    13     1     2    1
    14     2     3   ar
    15     3     4   ar
    16     4     5   ar
    17     5     6   ar
    18     6    12    1
    19    12    13    3
    20     6     7   ar
    21     7     8   ar
    22     8     9   ar
    23     9    10   ar
    24    10    11   ar
    25    11    14    1
    26    14    15    1
    27     1    16    1
    28    16    17   ar
    29    17    18   ar
    30    18    19   ar
    31    19    20   ar
    32    20    21   ar
    33    21    22    1
    34    22    23    1
    35    23    24    1
    36    24    25    1
    37    31    32   ar
    38    32    33   ar
    39    33    37    1
    40    37    38    1
    41    33    34   ar
    42    34    29   ar
    43    11     2   ar
    44    21    16   ar
    45     9     4   ar
    46    25    20    1
    47    27    28    1
