@<TRIPOS>MOLECULE
*****
 31 35 0 0 0
SMALL
GASTEIGER

@<TRIPOS>ATOM
      1 C         139.7318  139.6863  164.9406 C.ar    1  UNL1        0.0505
      2 C         138.5526  138.9812  165.5425 C.ar    1  UNL1        0.0178
      3 C         138.3142  139.0473  167.0219 C.ar    1  UNL1        0.0379
      4 C         139.2549  139.8185  167.8995 C.ar    1  UNL1        0.1364
      5 C         140.4342  140.5237  167.2976 C.ar    1  UNL1        0.0367
      6 C         140.6726  140.4575  165.8181 C.ar    1  UNL1        0.0153
      7 C         141.3749  141.2949  168.1751 C.3     1  UNL1        0.1537
      8 C         142.3961  142.1005  168.9223 C.3     1  UNL1        0.2350
      9 O         143.3923  142.6217  167.9293 O.2     1  UNL1       -0.4478
     10 C         142.9868  142.1382  166.5684 C.2     1  UNL1        0.2770
     11 N         143.7024  142.4245  165.2816 N.pl3   1  UNL1       -0.3133
     12 N         141.7400  141.3182  166.7204 N.2     1  UNL1       -0.2204
     13 C         141.1365  141.3610  169.6546 C.3     1  UNL1        0.0666
     14 C         141.5420  141.8445  171.0154 C.3     1  UNL1        0.0061
     15 C         142.3605  142.2134  169.8137 C.3     1  UNL1        0.0061
     16 C         139.9574  140.6559  170.2565 C.3     1  UNL1        0.2074
     17 O         139.0165  139.8846  169.3789 O.3     1  UNL1       -0.4756
     18 H         144.5177  142.9764  165.2840 H       1  UNL1        0.1466
     19 H         143.3568  142.0606  164.4347 H       1  UNL1        0.1466
     20 C         140.5892  138.3955  162.8552 C.2     1  UNL1        0.2672
     21 O         140.9698  137.2370  163.7287 O.2     1  UNL1       -0.2682
     22 N         139.9702  139.6201  163.4611 N.am    1  UNL1       -0.2791
     23 H         139.7204  140.3805  162.8878 H       1  UNL1        0.1552
     24 C         141.3044  138.1972  158.4168 C.ar    1  UNL1        0.0876
     25 C         142.4431  137.9856  159.3702 C.ar    1  UNL1        0.0135
     26 C         142.2046  138.0518  160.8497 C.ar    1  UNL1        0.0245
     27 C         140.8276  138.3294  161.3757 C.ar    1  UNL1        0.1348
     28 N         139.6890  138.5409  160.4224 N.ar    1  UNL1       -0.2385
     29 C         139.9274  138.4748  158.9429 C.ar    1  UNL1        0.1092
     30 N         141.7812  138.0649  155.4579 N.1     1  UNL1       -0.1908
     31 C         141.5428  138.1310  156.9374 C.1     1  UNL1        0.1020
@<TRIPOS>BOND
     1    30    31    3
     2    31    24    1
     3    24    25   ar
     4    25    26   ar
     5    26    27   ar
     6    27    20    1
     7    20    21    2
     8    20    22   am
     9    22     1    1
    10     1     2   ar
    11     2     3   ar
    12     3     4   ar
    13     4     5   ar
    14     5     6   ar
    15     5     7    1
    16     7     8    1
    17     8     9    1
    18     9    10    1
    19    10    11    1
    20    10    12    2
    21     7    13    1
    22    13    14    1
    23    14    15    1
    24    13    16    1
    25    16    17    1
    26    27    28   ar
    27    28    29   ar
    28    29    24   ar
    29     6     1   ar
    30    12     7    1
    31    15    13    1
    32    17     4    1
    33    22    23    1
    34    11    18    1
    35    11    19    1
@<TRIPOS>MOLECULE
*****
 31 35 0 0 0
SMALL
GASTEIGER

@<TRIPOS>ATOM
      1 C         139.2592  140.0804  165.0110 C.ar    1  UNL1        0.0505
      2 C         138.2017  139.2919  165.7250 C.ar    1  UNL1        0.0178
      3 C         138.2361  139.1726  167.2198 C.ar    1  UNL1        0.0379
      4 C         139.3280  139.8418  168.0007 C.ar    1  UNL1        0.1364
      5 C         140.3856  140.6304  167.2867 C.ar    1  UNL1        0.0367
      6 C         140.3512  140.7497  165.7919 C.ar    1  UNL1        0.0153
      7 C         141.4775  141.2996  168.0676 C.3     1  UNL1        0.1537
      8 C         142.6252  142.0199  168.7109 C.3     1  UNL1        0.2350
      9 O         143.4301  142.6717  167.6259 O.2     1  UNL1       -0.4478
     10 C         142.7798  142.3543  166.3120 C.2     1  UNL1        0.2770
     11 N         143.2532  142.8056  164.9621 N.pl3   1  UNL1       -0.3133
     12 N         141.5731  141.5062  166.5850 N.2     1  UNL1       -0.2204
     13 C         141.5119  141.1802  169.5625 C.3     1  UNL1        0.0666
     14 C         142.1622  141.4977  170.8763 C.3     1  UNL1        0.0061
     15 C         142.7529  142.0219  169.6011 C.3     1  UNL1        0.0061
     16 C         140.4544  140.3917  170.2764 C.3     1  UNL1        0.2074
     17 O         139.3624  139.7224  169.4956 O.3     1  UNL1       -0.4756
     18 H         144.0609  143.3632  164.8847 H       1  UNL1        0.1466
     19 H         142.7561  142.5443  164.1534 H       1  UNL1        0.1466
     20 C         138.3395  141.2209  162.8654 C.2     1  UNL1        0.2672
     21 O         137.4885  142.1227  163.7096 O.2     1  UNL1       -0.2682
     22 N         139.2249  140.1997  163.5161 N.am    1  UNL1       -0.2791
     23 H         139.7834  139.6078  162.9621 H       1  UNL1        0.1552
     24 C         138.2364  141.5788  158.3809 C.ar    1  UNL1        0.0876
     25 C         138.0119  140.2464  159.0323 C.ar    1  UNL1        0.0135
     26 C         138.0463  140.1270  160.5271 C.ar    1  UNL1        0.0245
     27 C         138.3051  141.3402  161.3706 C.ar    1  UNL1        0.1348
     28 N         138.5296  142.6725  160.7192 N.ar    1  UNL1       -0.2385
     29 C         138.4952  142.7919  159.2243 C.ar    1  UNL1        0.1092
     30 N         138.1676  141.8175  155.3912 N.1     1  UNL1       -0.1908
     31 C         138.2020  141.6981  156.8860 C.1     1  UNL1        0.1020
@<TRIPOS>BOND
     1    30    31    3
     2    31    24    1
     3    24    25   ar
     4    25    26   ar
     5    26    27   ar
     6    27    20    1
     7    20    21    2
     8    20    22   am
     9    22     1    1
    10     1     2   ar
    11     2     3   ar
    12     3     4   ar
    13     4     5   ar
    14     5     6   ar
    15     5     7    1
    16     7     8    1
    17     8     9    1
    18     9    10    1
    19    10    11    1
    20    10    12    2
    21     7    13    1
    22    13    14    1
    23    14    15    1
    24    13    16    1
    25    16    17    1
    26    27    28   ar
    27    28    29   ar
    28    29    24   ar
    29     6     1   ar
    30    12     7    1
    31    15    13    1
    32    17     4    1
    33    22    23    1
    34    11    18    1
    35    11    19    1
@<TRIPOS>MOLECULE
*****
 31 35 0 0 0
SMALL
GASTEIGER

@<TRIPOS>ATOM
      1 C         139.0564  139.7448  162.7605 C.ar    1  UNL1        0.0505
      2 C         137.7607  140.0153  162.0548 C.ar    1  UNL1        0.0178
      3 C         137.6573  139.8111  160.5724 C.ar    1  UNL1        0.0379
      4 C         138.8494  139.3364  159.7957 C.ar    1  UNL1        0.1364
      5 C         140.1452  139.0659  160.5014 C.ar    1  UNL1        0.0367
      6 C         140.2486  139.2701  161.9838 C.ar    1  UNL1        0.0153
      7 C         141.3373  138.5911  159.7247 C.3     1  UNL1        0.1537
      8 C         142.6074  138.1150  159.0843 C.3     1  UNL1        0.2350
      9 O         143.6454  137.9788  160.1585 O.2     1  UNL1       -0.4478
     10 C         143.0169  138.3708  161.4628 C.2     1  UNL1        0.2770
     11 N         143.6956  138.3824  162.8004 N.pl3   1  UNL1       -0.3133
     12 N         141.5904  138.7492  161.1947 N.2     1  UNL1       -0.2204
     13 C         141.2338  138.3870  158.2422 C.3     1  UNL1        0.0666
     14 C         141.8624  137.9950  156.9380 C.3     1  UNL1        0.0061
     15 C         142.6702  137.9567  158.2012 C.3     1  UNL1        0.0061
     16 C         139.9382  138.6575  157.5365 C.3     1  UNL1        0.2074
     17 O         138.7459  139.1322  158.3132 O.3     1  UNL1       -0.4756
     18 H         144.6403  138.1155  162.8754 H       1  UNL1        0.1466
     19 H         143.1964  138.6568  163.6034 H       1  UNL1        0.1466
     20 C         139.9360  141.1113  164.7876 C.2     1  UNL1        0.2672
     21 O         140.6087  142.0695  163.8498 O.2     1  UNL1       -0.2682
     22 N         139.1599  139.9490  164.2430 N.am    1  UNL1       -0.2791
     23 H         138.7184  139.3201  164.8585 H       1  UNL1        0.1552
     24 C         140.2464  141.7239  169.2349 C.ar    1  UNL1        0.0876
     25 C         140.4535  142.8804  168.3022 C.ar    1  UNL1        0.0135
     26 C         140.3500  142.6762  166.8198 C.ar    1  UNL1        0.0245
     27 C         140.0395  141.3155  166.2700 C.ar    1  UNL1        0.1348
     28 N         139.8324  140.1591  167.2026 N.ar    1  UNL1       -0.2385
     29 C         139.9359  140.3633  168.6851 C.ar    1  UNL1        0.1092
     30 N         140.4534  142.1323  172.1997 N.1     1  UNL1       -0.1908
     31 C         140.3499  141.9281  170.7173 C.1     1  UNL1        0.1020
@<TRIPOS>BOND
     1    30    31    3
     2    31    24    1
     3    24    25   ar
     4    25    26   ar
     5    26    27   ar
     6    27    20    1
     7    20    21    2
     8    20    22   am
     9    22     1    1
    10     1     2   ar
    11     2     3   ar
    12     3     4   ar
    13     4     5   ar
    14     5     6   ar
    15     5     7    1
    16     7     8    1
    17     8     9    1
    18     9    10    1
    19    10    11    1
    20    10    12    2
    21     7    13    1
    22    13    14    1
    23    14    15    1
    24    13    16    1
    25    16    17    1
    26    27    28   ar
    27    28    29   ar
    28    29    24   ar
    29     6     1   ar
    30    12     7    1
    31    15    13    1
    32    17     4    1
    33    22    23    1
    34    11    18    1
    35    11    19    1
@<TRIPOS>MOLECULE
*****
 31 35 0 0 0
SMALL
GASTEIGER

@<TRIPOS>ATOM
      1 C         138.3802  141.0902  162.5927 C.ar    1  UNL1        0.0505
      2 C         137.7273  139.8145  162.1497 C.ar    1  UNL1        0.0178
      3 C         137.5480  139.5321  160.6875 C.ar    1  UNL1        0.0379
      4 C         138.0215  140.5255  159.6682 C.ar    1  UNL1        0.1364
      5 C         138.6745  141.8013  160.1112 C.ar    1  UNL1        0.0367
      6 C         138.8538  142.0836  161.5734 C.ar    1  UNL1        0.0153
      7 C         139.1480  142.7946  159.0919 C.3     1  UNL1        0.1537
      8 C         139.6692  143.8766  158.1932 C.3     1  UNL1        0.2350
      9 O         140.2376  144.9630  159.0572 O.2     1  UNL1       -0.4478
     10 C         140.0678  144.5525  160.4900 C.2     1  UNL1        0.2770
     11 N         140.4961  145.3433  161.6904 N.pl3   1  UNL1       -0.3133
     12 N         139.3943  143.2124  160.5114 N.2     1  UNL1       -0.2204
     13 C         138.9687  142.5123  157.6297 C.3     1  UNL1        0.0666
     14 C         139.1386  142.9228  156.1970 C.3     1  UNL1        0.0061
     15 C         139.6190  143.8224  157.2969 C.3     1  UNL1        0.0061
     16 C         138.3158  141.2366  157.1867 C.3     1  UNL1        0.2074
     17 O         137.8422  140.2431  158.2060 O.3     1  UNL1       -0.4756
     18 H         140.9329  146.2178  161.5736 H       1  UNL1        0.1466
     19 H         140.3404  144.9878  162.5952 H       1  UNL1        0.1466
     20 C         139.6858  140.7312  164.8100 C.2     1  UNL1        0.2672
     21 O         140.6327  139.8074  164.1029 O.2     1  UNL1       -0.2682
     22 N         138.5595  141.3725  164.0549 N.am    1  UNL1       -0.2791
     23 H         137.9380  141.9788  164.5190 H       1  UNL1        0.1552
     24 C         140.2237  141.5782  169.1967 C.ar    1  UNL1        0.0876
     25 C         139.6576  140.2626  168.7508 C.ar    1  UNL1        0.0135
     26 C         139.4783  139.9802  167.2886 C.ar    1  UNL1        0.0245
     27 C         139.8651  141.0135  166.2722 C.ar    1  UNL1        0.1348
     28 N         140.4312  142.3290  166.7182 N.ar    1  UNL1       -0.2385
     29 C         140.6105  142.6114  168.1804 C.ar    1  UNL1        0.1092
     30 N         140.5824  142.1429  172.1212 N.1     1  UNL1       -0.1908
     31 C         140.4031  141.8605  170.6589 C.1     1  UNL1        0.1020
@<TRIPOS>BOND
     1    30    31    3
     2    31    24    1
     3    24    25   ar
     4    25    26   ar
     5    26    27   ar
     6    27    20    1
     7    20    21    2
     8    20    22   am
     9    22     1    1
    10     1     2   ar
    11     2     3   ar
    12     3     4   ar
    13     4     5   ar
    14     5     6   ar
    15     5     7    1
    16     7     8    1
    17     8     9    1
    18     9    10    1
    19    10    11    1
    20    10    12    2
    21     7    13    1
    22    13    14    1
    23    14    15    1
    24    13    16    1
    25    16    17    1
    26    27    28   ar
    27    28    29   ar
    28    29    24   ar
    29     6     1   ar
    30    12     7    1
    31    15    13    1
    32    17     4    1
    33    22    23    1
    34    11    18    1
    35    11    19    1
@<TRIPOS>MOLECULE
*****
 31 35 0 0 0
SMALL
GASTEIGER

@<TRIPOS>ATOM
      1 C         141.7763  141.6076  164.5120 C.ar    1  UNL1        0.0505
      2 C         143.0280  142.4322  164.5684 C.ar    1  UNL1        0.0178
      3 C         143.6471  142.7660  165.8932 C.ar    1  UNL1        0.0379
      4 C         143.0145  142.2753  167.1617 C.ar    1  UNL1        0.1364
      5 C         141.7627  141.4507  167.1053 C.ar    1  UNL1        0.0367
      6 C         141.1436  141.1168  165.7804 C.ar    1  UNL1        0.0153
      7 C         141.1301  140.9599  168.3737 C.3     1  UNL1        0.1537
      8 C         140.3881  140.4020  169.5518 C.3     1  UNL1        0.2350
      9 O         139.2000  139.6458  169.0355 O.2     1  UNL1       -0.4478
     10 C         139.2078  139.7363  167.5382 C.2     1  UNL1        0.2770
     11 N         138.1997  139.1225  166.6126 N.pl3   1  UNL1       -0.3133
     12 N         140.4007  140.5486  167.1292 N.2     1  UNL1       -0.2204
     13 C         141.7493  141.2938  169.6986 C.3     1  UNL1        0.0666
     14 C         141.7415  141.2032  171.1958 C.3     1  UNL1        0.0061
     15 C         140.6613  140.5344  170.3983 C.3     1  UNL1        0.0061
     16 C         143.0010  142.1183  169.7550 C.3     1  UNL1        0.2074
     17 O         143.6337  142.6091  168.4865 O.3     1  UNL1       -0.4756
     18 H         137.4471  138.6039  166.9784 H       1  UNL1        0.1466
     19 H         138.2906  139.2382  165.6391 H       1  UNL1        0.1466
     20 C         140.0023  142.0819  162.6740 C.2     1  UNL1        0.2672
     21 O         139.4665  143.2238  163.4858 O.2     1  UNL1       -0.2682
     22 N         141.1571  141.2738  163.1871 N.am    1  UNL1       -0.2791
     23 H         141.5088  140.5243  162.6543 H       1  UNL1        0.1552
     24 C         138.1449  141.0804  158.6995 C.ar    1  UNL1        0.0876
     25 C         138.3689  140.0003  159.7161 C.ar    1  UNL1        0.0135
     26 C         138.9880  140.3341  161.0409 C.ar    1  UNL1        0.0245
     27 C         139.3832  141.7480  161.3492 C.ar    1  UNL1        0.1348
     28 N         139.1591  142.8280  160.3326 N.ar    1  UNL1       -0.2385
     29 C         138.5400  142.4941  159.0077 C.ar    1  UNL1        0.1092
     30 N         136.9066  140.4127  156.0498 N.1     1  UNL1       -0.1908
     31 C         137.5258  140.7465  157.3746 C.1     1  UNL1        0.1020
@<TRIPOS>BOND
     1    30    31    3
     2    31    24    1
     3    24    25   ar
     4    25    26   ar
     5    26    27   ar
     6    27    20    1
     7    20    21    2
     8    20    22   am
     9    22     1    1
    10     1     2   ar
    11     2     3   ar
    12     3     4   ar
    13     4     5   ar
    14     5     6   ar
    15     5     7    1
    16     7     8    1
    17     8     9    1
    18     9    10    1
    19    10    11    1
    20    10    12    2
    21     7    13    1
    22    13    14    1
    23    14    15    1
    24    13    16    1
    25    16    17    1
    26    27    28   ar
    27    28    29   ar
    28    29    24   ar
    29     6     1   ar
    30    12     7    1
    31    15    13    1
    32    17     4    1
    33    22    23    1
    34    11    18    1
    35    11    19    1
@<TRIPOS>MOLECULE
*****
 31 35 0 0 0
SMALL
GASTEIGER

@<TRIPOS>ATOM
      1 C         139.0037  141.2703  160.6776 C.ar    1  UNL1        0.0505
      2 C         138.0908  140.3418  159.9331 C.ar    1  UNL1        0.0178
      3 C         137.7125  140.6411  158.5127 C.ar    1  UNL1        0.0379
      4 C         138.2472  141.8688  157.8370 C.ar    1  UNL1        0.1364
      5 C         139.1601  142.7974  158.5815 C.ar    1  UNL1        0.0367
      6 C         139.5384  142.4982  160.0019 C.ar    1  UNL1        0.0153
      7 C         139.6948  144.0252  157.9057 C.3     1  UNL1        0.1537
      8 C         140.3044  145.2842  157.3643 C.3     1  UNL1        0.2350
      9 O         141.1447  145.8949  158.4464 O.2     1  UNL1       -0.4478
     10 C         141.0545  145.0132  159.6567 C.2     1  UNL1        0.2770
     11 N         141.7399  145.2462  160.9703 N.pl3   1  UNL1       -0.3133
     12 N         140.1583  143.8577  159.3225 N.2     1  UNL1       -0.2204
     13 C         139.3165  144.3244  156.4854 C.3     1  UNL1        0.0666
     14 C         139.4068  145.2060  155.2752 C.3     1  UNL1        0.0061
     15 C         140.1523  145.5694  156.5251 C.3     1  UNL1        0.0061
     16 C         138.4036  143.3959  155.7408 C.3     1  UNL1        0.2074
     17 O         137.8689  142.1681  156.4166 O.3     1  UNL1       -0.4756
     18 H         142.3114  146.0383  161.0937 H       1  UNL1        0.1466
     19 H         141.6184  144.6070  161.7092 H       1  UNL1        0.1466
     20 C         138.3920  141.1987  163.2016 C.2     1  UNL1        0.2672
     21 O         137.0236  141.7256  162.8850 O.2     1  UNL1       -0.2682
     22 N         139.3819  140.9711  162.0980 N.am    1  UNL1       -0.2791
     23 H         140.2800  140.6253  162.3058 H       1  UNL1        0.1552
     24 C         139.5267  140.3010  167.4627 C.ar    1  UNL1        0.0876
     25 C         138.6316  139.3609  166.7109 C.ar    1  UNL1        0.0135
     26 C         138.2533  139.6601  165.2906 C.ar    1  UNL1        0.0245
     27 C         138.7702  140.8995  164.6220 C.ar    1  UNL1        0.1348
     28 N         139.6653  141.8395  165.3737 N.ar    1  UNL1       -0.2385
     29 C         140.0435  141.5402  166.7941 C.ar    1  UNL1        0.1092
     30 N         140.2832  139.7025  170.3034 N.1     1  UNL1       -0.1908
     31 C         139.9050  140.0017  168.8830 C.1     1  UNL1        0.1020
@<TRIPOS>BOND
     1    30    31    3
     2    31    24    1
     3    24    25   ar
     4    25    26   ar
     5    26    27   ar
     6    27    20    1
     7    20    21    2
     8    20    22   am
     9    22     1    1
    10     1     2   ar
    11     2     3   ar
    12     3     4   ar
    13     4     5   ar
    14     5     6   ar
    15     5     7    1
    16     7     8    1
    17     8     9    1
    18     9    10    1
    19    10    11    1
    20    10    12    2
    21     7    13    1
    22    13    14    1
    23    14    15    1
    24    13    16    1
    25    16    17    1
    26    27    28   ar
    27    28    29   ar
    28    29    24   ar
    29     6     1   ar
    30    12     7    1
    31    15    13    1
    32    17     4    1
    33    22    23    1
    34    11    18    1
    35    11    19    1
@<TRIPOS>MOLECULE
*****
 31 35 0 0 0
SMALL
GASTEIGER

@<TRIPOS>ATOM
      1 C         142.3916  139.2619  162.7048 C.ar    1  UNL1        0.0505
      2 C         143.6935  138.5709  162.4268 C.ar    1  UNL1        0.0178
      3 C         143.9501  137.9694  161.0769 C.ar    1  UNL1        0.0379
      4 C         142.9047  138.0589  160.0049 C.ar    1  UNL1        0.1364
      5 C         141.6027  138.7500  160.2829 C.ar    1  UNL1        0.0367
      6 C         141.3461  139.3515  161.6329 C.ar    1  UNL1        0.0153
      7 C         140.5573  138.8396  159.2110 C.3     1  UNL1        0.1537
      8 C         139.4236  139.0066  158.2431 C.3     1  UNL1        0.2350
      9 O         138.3261  139.7552  158.9396 O.2     1  UNL1       -0.4478
     10 C         138.7815  140.0508  160.3380 C.2     1  UNL1        0.2770
     11 N         137.9959  140.7836  161.3847 N.pl3   1  UNL1       -0.3133
     12 N         140.1605  139.4849  160.5056 N.2     1  UNL1       -0.2204
     13 C         140.8139  138.2381  157.8610 C.3     1  UNL1        0.0666
     14 C         140.3584  137.9425  156.4628 C.3     1  UNL1        0.0061
     15 C         139.4586  138.6887  157.4026 C.3     1  UNL1        0.0061
     16 C         142.1158  137.5470  157.5830 C.3     1  UNL1        0.2074
     17 O         143.1613  137.4574  158.6550 O.3     1  UNL1       -0.4756
     18 H         137.0936  141.1190  161.1781 H       1  UNL1        0.1466
     19 H         138.3825  140.9291  162.2784 H       1  UNL1        0.1466
     20 C         141.7637  138.9821  165.2103 C.2     1  UNL1        0.2672
     21 O         141.6489  137.4991  165.0159 O.2     1  UNL1       -0.2682
     22 N         142.1350  139.8634  164.0548 N.am    1  UNL1       -0.2791
     23 H         142.2104  140.8367  164.1824 H       1  UNL1        0.1552
     24 C         140.9940  140.7865  169.2601 C.ar    1  UNL1        0.0876
     25 C         139.8492  140.5189  168.3285 C.ar    1  UNL1        0.0135
     26 C         140.1058  139.9174  166.9785 C.ar    1  UNL1        0.0245
     27 C         141.5071  139.5836  166.5602 C.ar    1  UNL1        0.1348
     28 N         142.6518  139.8512  167.4919 N.ar    1  UNL1       -0.2385
     29 C         142.3952  140.4527  168.8419 C.ar    1  UNL1        0.1092
     30 N         140.4809  141.9895  171.9601 N.1     1  UNL1       -0.1908
     31 C         140.7374  141.3880  170.6101 C.1     1  UNL1        0.1020
@<TRIPOS>BOND
     1    30    31    3
     2    31    24    1
     3    24    25   ar
     4    25    26   ar
     5    26    27   ar
     6    27    20    1
     7    20    21    2
     8    20    22   am
     9    22     1    1
    10     1     2   ar
    11     2     3   ar
    12     3     4   ar
    13     4     5   ar
    14     5     6   ar
    15     5     7    1
    16     7     8    1
    17     8     9    1
    18     9    10    1
    19    10    11    1
    20    10    12    2
    21     7    13    1
    22    13    14    1
    23    14    15    1
    24    13    16    1
    25    16    17    1
    26    27    28   ar
    27    28    29   ar
    28    29    24   ar
    29     6     1   ar
    30    12     7    1
    31    15    13    1
    32    17     4    1
    33    22    23    1
    34    11    18    1
    35    11    19    1
@<TRIPOS>MOLECULE
*****
 31 35 0 0 0
SMALL
GASTEIGER

@<TRIPOS>ATOM
      1 C         142.1177  141.2257  164.5174 C.ar    1  UNL1        0.0505
      2 C         143.3234  142.0920  164.7314 C.ar    1  UNL1        0.0178
      3 C         143.6765  142.5581  166.1127 C.ar    1  UNL1        0.0379
      4 C         142.8239  142.1578  167.2801 C.ar    1  UNL1        0.1364
      5 C         141.6182  141.2914  167.0662 C.ar    1  UNL1        0.0367
      6 C         141.2651  140.8254  165.6849 C.ar    1  UNL1        0.0153
      7 C         140.7656  140.8911  168.2336 C.3     1  UNL1        0.1537
      8 C         139.8237  140.4126  169.2984 C.3     1  UNL1        0.2350
      9 O         138.7661  139.5769  168.6402 O.2     1  UNL1       -0.4478
     10 C         139.0545  139.5390  167.1686 C.2     1  UNL1        0.2770
     11 N         138.2485  138.8158  166.1306 N.pl3   1  UNL1       -0.3133
     12 N         140.2902  140.3512  166.9174 N.2     1  UNL1       -0.2204
     13 C         141.1187  141.3572  169.6150 C.3     1  UNL1        0.0666
     14 C         140.8304  141.3951  171.0865 C.3     1  UNL1        0.0061
     15 C         139.9304  140.6259  170.1655 C.3     1  UNL1        0.0061
     16 C         142.3244  142.2235  169.8289 C.3     1  UNL1        0.2074
     17 O         143.1770  142.6238  168.6615 O.3     1  UNL1       -0.4756
     18 H         137.4486  138.3065  166.3952 H       1  UNL1        0.1466
     19 H         138.5195  138.8504  165.1848 H       1  UNL1        0.1466
     20 C         142.3829  139.5088  162.5856 C.2     1  UNL1        0.2672
     21 O         143.3544  138.7240  163.4165 O.2     1  UNL1       -0.2682
     22 N         141.7646  140.7596  163.1361 N.am    1  UNL1       -0.2791
     23 H         141.1270  141.2747  162.5908 H       1  UNL1        0.1552
     24 C         141.3236  138.1107  158.4416 C.ar    1  UNL1        0.0876
     25 C         142.7308  137.9731  158.9427 C.ar    1  UNL1        0.0135
     26 C         143.0839  138.4392  160.3240 C.ar    1  UNL1        0.0245
     27 C         142.0298  139.0428  161.2043 C.ar    1  UNL1        0.1348
     28 N         140.6227  139.1803  160.7031 N.ar    1  UNL1       -0.2385
     29 C         140.2696  138.7142  159.3218 C.ar    1  UNL1        0.1092
     30 N         140.6174  137.1786  155.6789 N.1     1  UNL1       -0.1908
     31 C         140.9705  137.6446  157.0602 C.1     1  UNL1        0.1020
@<TRIPOS>BOND
     1    30    31    3
     2    31    24    1
     3    24    25   ar
     4    25    26   ar
     5    26    27   ar
     6    27    20    1
     7    20    21    2
     8    20    22   am
     9    22     1    1
    10     1     2   ar
    11     2     3   ar
    12     3     4   ar
    13     4     5   ar
    14     5     6   ar
    15     5     7    1
    16     7     8    1
    17     8     9    1
    18     9    10    1
    19    10    11    1
    20    10    12    2
    21     7    13    1
    22    13    14    1
    23    14    15    1
    24    13    16    1
    25    16    17    1
    26    27    28   ar
    27    28    29   ar
    28    29    24   ar
    29     6     1   ar
    30    12     7    1
    31    15    13    1
    32    17     4    1
    33    22    23    1
    34    11    18    1
    35    11    19    1
@<TRIPOS>MOLECULE
*****
 31 35 0 0 0
SMALL
GASTEIGER

@<TRIPOS>ATOM
      1 C         143.1059  142.8956  162.6641 C.ar    1  UNL1        0.0505
      2 C         144.1883  142.0342  162.0841 C.ar    1  UNL1        0.0178
      3 C         144.4233  142.0209  160.6027 C.ar    1  UNL1        0.0379
      4 C         143.5759  142.8691  159.7013 C.ar    1  UNL1        0.1364
      5 C         142.4935  143.7305  160.2813 C.ar    1  UNL1        0.0367
      6 C         142.2585  143.7438  161.7627 C.ar    1  UNL1        0.0153
      7 C         141.6461  144.5786  159.3799 C.3     1  UNL1        0.1537
      8 C         140.7238  145.4749  158.6078 C.3     1  UNL1        0.2350
      9 O         139.8037  146.1452  159.5845 O.2     1  UNL1       -0.4478
     10 C         140.1572  145.6632  160.9603 C.2     1  UNL1        0.2770
     11 N         139.4894  146.0767  162.2381 N.pl3   1  UNL1       -0.3133
     12 N         141.2959  144.6950  160.8338 N.2     1  UNL1       -0.2204
     13 C         141.8811  144.5654  157.8984 C.3     1  UNL1        0.0666
     14 C         141.5275  145.0474  156.5227 C.3     1  UNL1        0.0061
     15 C         140.7669  145.5524  157.7129 C.3     1  UNL1        0.0061
     16 C         142.9635  143.7040  157.3184 C.3     1  UNL1        0.2074
     17 O         143.8109  142.8558  158.2199 O.3     1  UNL1       -0.4756
     18 H         138.7460  146.7219  162.2186 H       1  UNL1        0.1466
     19 H         139.7944  145.7030  163.0963 H       1  UNL1        0.1466
     20 C         141.7861  142.0608  164.7405 C.2     1  UNL1        0.2672
     21 O         140.9362  141.1994  163.8539 O.2     1  UNL1       -0.2682
     22 N         142.8709  142.9088  164.1455 N.am    1  UNL1       -0.2791
     23 H         143.4287  143.4742  164.7274 H       1  UNL1        0.1552
     24 C         141.0811  142.1005  169.1847 C.ar    1  UNL1        0.0876
     25 C         140.2235  142.9368  168.2818 C.ar    1  UNL1        0.0135
     26 C         140.4585  142.9236  166.8004 C.ar    1  UNL1        0.0245
     27 C         141.5511  142.0740  166.2219 C.ar    1  UNL1        0.1348
     28 N         142.4086  141.2378  167.1248 N.ar    1  UNL1       -0.2385
     29 C         142.1736  141.2510  168.6062 C.ar    1  UNL1        0.1092
     30 N         140.6111  142.1270  172.1475 N.1     1  UNL1       -0.1908
     31 C         140.8461  142.1138  170.6661 C.1     1  UNL1        0.1020
@<TRIPOS>BOND
     1    30    31    3
     2    31    24    1
     3    24    25   ar
     4    25    26   ar
     5    26    27   ar
     6    27    20    1
     7    20    21    2
     8    20    22   am
     9    22     1    1
    10     1     2   ar
    11     2     3   ar
    12     3     4   ar
    13     4     5   ar
    14     5     6   ar
    15     5     7    1
    16     7     8    1
    17     8     9    1
    18     9    10    1
    19    10    11    1
    20    10    12    2
    21     7    13    1
    22    13    14    1
    23    14    15    1
    24    13    16    1
    25    16    17    1
    26    27    28   ar
    27    28    29   ar
    28    29    24   ar
    29     6     1   ar
    30    12     7    1
    31    15    13    1
    32    17     4    1
    33    22    23    1
    34    11    18    1
    35    11    19    1
