@<TRIPOS>MOLECULE
*****
 26 28 0 0 0
SMALL
GASTEIGER

@<TRIPOS>ATOM
      1 C         140.0801  142.6495  165.1262 C.3     1  UNL1        0.2136
      2 C         141.5117  143.0865  165.0285 C.ar    1  UNL1        0.0157
      3 C         142.7823  142.4866  165.5535 C.ar    1  UNL1       -0.0011
      4 C         144.0951  143.1636  165.2926 C.ar    1  UNL1       -0.0002
      5 C         144.1374  144.4405  164.5067 C.ar    1  UNL1       -0.0003
      6 C         142.8668  145.0404  163.9816 C.ar    1  UNL1       -0.0044
      7 C         141.5540  144.3634  164.2425 C.ar    1  UNL1       -0.0202
      8 C         140.1485  144.7156  163.8546 C.3     1  UNL1        0.0584
      9 C         139.2375  143.6564  164.4008 C.3     1  UNL1        0.1471
     10 O         138.1009  142.7689  164.8133 O.3     1  UNL1       -0.3812
     11 H         137.2665  143.1379  164.4839 H       1  UNL1        0.2105
     12 O         139.5790  141.4213  165.8266 O.3     1  UNL1       -0.4726
     13 C         138.1182  139.0680  166.9789 C.3     1  UNL1        0.0342
     14 C         138.9184  138.9109  165.7199 C.ar    1  UNL1        0.0121
     15 C         138.9882  137.5771  165.0371 C.ar    1  UNL1       -0.0013
     16 C         139.7884  137.4200  163.7782 C.ar    1  UNL1       -0.0001
     17 C         140.5188  138.5967  163.2020 C.ar    1  UNL1        0.0031
     18 C         140.4490  139.9304  163.8848 C.ar    1  UNL1        0.0366
     19 C         139.6488  140.0875  165.1438 C.ar    1  UNL1        0.1349
     20 C         138.1574  144.4777  163.7615 C.3     1  UNL1        0.1001
     21 N         137.4727  143.9825  162.5222 N.3     1  UNL1       -0.2933
     22 H         137.3201  144.7954  161.9253 H       1  UNL1        0.1234
     23 C         138.1285  142.9366  161.6701 C.3     1  UNL1        0.1008
     24 C         137.7659  141.4916  161.8444 C.3     1  UNL1        0.1542
     25 O         136.7552  141.0915  162.8780 O.3     1  UNL1       -0.3805
     26 H         137.1060  141.2787  163.7628 H       1  UNL1        0.2105
@<TRIPOS>BOND
     1    13    14    1
     2    14    15   ar
     3    15    16   ar
     4    16    17   ar
     5    17    18   ar
     6    18    19   ar
     7    19    12    1
     8    12     1    1
     9     1     2    1
    10     2     3   ar
    11     3     4   ar
    12     4     5   ar
    13     5     6   ar
    14     6     7   ar
    15     7     8    1
    16     8     9    1
    17     9    10    1
    18     9    20    1
    19    20    21    1
    20    21    23    1
    21    23    24    1
    22    24    25    1
    23    19    14   ar
    24     9     1    1
    25     7     2   ar
    26    10    11    1
    27    21    22    1
    28    25    26    1
@<TRIPOS>MOLECULE
*****
 26 28 0 0 0
SMALL
GASTEIGER

@<TRIPOS>ATOM
      1 C         141.5638  142.3537  164.7966 C.3     1  UNL1        0.2136
      2 C         142.6615  141.3331  164.7365 C.ar    1  UNL1        0.0157
      3 C         142.7493  139.9227  165.2396 C.ar    1  UNL1       -0.0011
      4 C         144.0039  139.1280  165.0288 C.ar    1  UNL1       -0.0002
      5 C         145.1706  139.7437  164.3149 C.ar    1  UNL1       -0.0003
      6 C         145.0828  141.1540  163.8118 C.ar    1  UNL1       -0.0044
      7 C         143.8282  141.9487  164.0226 C.ar    1  UNL1       -0.0202
      8 C         143.4516  143.3498  163.6415 C.3     1  UNL1        0.0584
      9 C         142.0522  143.6001  164.1199 C.3     1  UNL1        0.1471
     10 O         140.6955  144.1342  164.4721 O.3     1  UNL1       -0.3812
     11 H         140.6155  145.0477  164.1558 H       1  UNL1        0.2105
     12 O         140.2147  142.1615  165.4234 O.3     1  UNL1       -0.4726
     13 C         139.1786  139.4788  166.2776 C.3     1  UNL1        0.0342
     14 C         139.5878  140.4878  167.3092 C.ar    1  UNL1        0.0121
     15 C         139.4791  140.1556  168.7679 C.ar    1  UNL1       -0.0013
     16 C         139.8883  141.1647  169.7995 C.ar    1  UNL1       -0.0001
     17 C         140.4063  142.5060  169.3725 C.ar    1  UNL1        0.0031
     18 C         140.5151  142.8383  167.9138 C.ar    1  UNL1        0.0366
     19 C         140.1059  141.8292  166.8822 C.ar    1  UNL1        0.1349
     20 C         142.2569  144.9581  163.5167 C.3     1  UNL1        0.1001
     21 N         142.3875  145.1065  162.0298 N.3     1  UNL1       -0.2933
     22 H         143.0284  144.3776  161.7163 H       1  UNL1        0.1234
     23 C         141.1704  145.0175  161.1575 C.3     1  UNL1        0.1008
     24 C         139.9764  145.8784  161.4460 C.3     1  UNL1        0.1542
     25 O         138.8446  145.3393  162.2697 O.3     1  UNL1       -0.3805
     26 H         138.4113  144.6162  161.7899 H       1  UNL1        0.2105
@<TRIPOS>BOND
     1    13    14    1
     2    14    15   ar
     3    15    16   ar
     4    16    17   ar
     5    17    18   ar
     6    18    19   ar
     7    19    12    1
     8    12     1    1
     9     1     2    1
    10     2     3   ar
    11     3     4   ar
    12     4     5   ar
    13     5     6   ar
    14     6     7   ar
    15     7     8    1
    16     8     9    1
    17     9    10    1
    18     9    20    1
    19    20    21    1
    20    21    23    1
    21    23    24    1
    22    24    25    1
    23    19    14   ar
    24     9     1    1
    25     7     2   ar
    26    10    11    1
    27    21    22    1
    28    25    26    1
@<TRIPOS>MOLECULE
*****
 26 28 0 0 0
SMALL
GASTEIGER

@<TRIPOS>ATOM
      1 C         141.6442  142.9486  165.0432 C.3     1  UNL1        0.2136
      2 C         140.2514  143.2517  164.5762 C.ar    1  UNL1        0.0157
      3 C         138.9274  142.6214  164.8921 C.ar    1  UNL1       -0.0011
      4 C         137.6747  143.1510  164.2594 C.ar    1  UNL1       -0.0002
      5 C         137.7460  144.3108  163.3109 C.ar    1  UNL1       -0.0003
      6 C         139.0700  144.9411  162.9950 C.ar    1  UNL1       -0.0044
      7 C         140.3226  144.4115  163.6277 C.ar    1  UNL1       -0.0202
      8 C         141.7595  144.8252  163.5085 C.3     1  UNL1        0.0584
      9 C         142.5763  143.9210  164.3834 C.3     1  UNL1        0.1471
     10 O         143.6342  143.1881  165.1539 O.3     1  UNL1       -0.3812
     11 H         144.5014  143.5794  164.9649 H       1  UNL1        0.2105
     12 O         142.0361  141.8634  166.0018 O.3     1  UNL1       -0.4726
     13 C         140.3968  139.3538  166.1223 C.3     1  UNL1        0.0342
     14 C         140.3647  140.3260  167.2640 C.ar    1  UNL1        0.0121
     15 C         139.5129  140.0436  168.4659 C.ar    1  UNL1       -0.0013
     16 C         139.4808  141.0159  169.6077 C.ar    1  UNL1       -0.0001
     17 C         140.3004  142.2707  169.5475 C.ar    1  UNL1        0.0031
     18 C         141.1521  142.5532  168.3456 C.ar    1  UNL1        0.0366
     19 C         141.1843  141.5809  167.2038 C.ar    1  UNL1        0.1349
     20 C         143.7296  144.7403  163.8846 C.3     1  UNL1        0.1001
     21 N         144.3217  144.4586  162.5355 N.3     1  UNL1       -0.2933
     22 H         145.3240  144.6321  162.6118 H       1  UNL1        0.1234
     23 C         144.1631  143.1021  161.9152 C.3     1  UNL1        0.1008
     24 C         145.1737  142.0285  162.1910 C.3     1  UNL1        0.1542
     25 O         146.0427  142.1121  163.4107 O.3     1  UNL1       -0.3805
     26 H         146.6348  142.8766  163.3340 H       1  UNL1        0.2105
@<TRIPOS>BOND
     1    13    14    1
     2    14    15   ar
     3    15    16   ar
     4    16    17   ar
     5    17    18   ar
     6    18    19   ar
     7    19    12    1
     8    12     1    1
     9     1     2    1
    10     2     3   ar
    11     3     4   ar
    12     4     5   ar
    13     5     6   ar
    14     6     7   ar
    15     7     8    1
    16     8     9    1
    17     9    10    1
    18     9    20    1
    19    20    21    1
    20    21    23    1
    21    23    24    1
    22    24    25    1
    23    19    14   ar
    24     9     1    1
    25     7     2   ar
    26    10    11    1
    27    21    22    1
    28    25    26    1
@<TRIPOS>MOLECULE
*****
 26 28 0 0 0
SMALL
GASTEIGER

@<TRIPOS>ATOM
      1 C         139.8945  140.6323  165.5153 C.3     1  UNL1        0.2136
      2 C         139.3571  141.9962  165.1974 C.ar    1  UNL1        0.0157
      3 C         139.6775  143.3544  165.7472 C.ar    1  UNL1       -0.0011
      4 C         138.9616  144.5638  165.2229 C.ar    1  UNL1       -0.0002
      5 C         137.9252  144.4148  164.1488 C.ar    1  UNL1       -0.0003
      6 C         137.6047  143.0565  163.5990 C.ar    1  UNL1       -0.0044
      7 C         138.3206  141.8472  164.1233 C.ar    1  UNL1       -0.0202
      8 C         138.2176  140.3913  163.7774 C.3     1  UNL1        0.0584
      9 C         139.1902  139.6404  164.6377 C.3     1  UNL1        0.1471
     10 O         140.0534  138.6384  165.3454 O.3     1  UNL1       -0.3812
     11 H         139.8631  137.7502  165.0053 H       1  UNL1        0.2105
     12 O         140.9507  140.3159  166.5323 O.3     1  UNL1       -0.4726
     13 C         142.9764  142.2623  167.5850 C.3     1  UNL1        0.0342
     14 C         141.8402  141.8171  168.4573 C.ar    1  UNL1        0.0121
     15 C         141.7168  142.3450  169.8558 C.ar    1  UNL1       -0.0013
     16 C         140.5806  141.8998  170.7281 C.ar    1  UNL1       -0.0001
     17 C         139.5677  140.9265  170.2017 C.ar    1  UNL1        0.0031
     18 C         139.6912  140.3986  168.8032 C.ar    1  UNL1        0.0366
     19 C         140.8274  140.8439  167.9309 C.ar    1  UNL1        0.1349
     20 C         138.6664  138.4391  163.9080 C.3     1  UNL1        0.1001
     21 N         138.4056  138.5124  162.4327 N.3     1  UNL1       -0.2933
     22 H         138.2714  139.4978  162.2060 H       1  UNL1        0.1234
     23 C         139.4198  137.9796  161.4644 C.3     1  UNL1        0.1008
     24 C         140.8761  137.9871  161.8238 C.3     1  UNL1        0.1542
     25 O         141.4650  136.8409  162.5915 O.3     1  UNL1       -0.3805
     26 H         141.0785  136.8149  163.4808 H       1  UNL1        0.2105
@<TRIPOS>BOND
     1    13    14    1
     2    14    15   ar
     3    15    16   ar
     4    16    17   ar
     5    17    18   ar
     6    18    19   ar
     7    19    12    1
     8    12     1    1
     9     1     2    1
    10     2     3   ar
    11     3     4   ar
    12     4     5   ar
    13     5     6   ar
    14     6     7   ar
    15     7     8    1
    16     8     9    1
    17     9    10    1
    18     9    20    1
    19    20    21    1
    20    21    23    1
    21    23    24    1
    22    24    25    1
    23    19    14   ar
    24     9     1    1
    25     7     2   ar
    26    10    11    1
    27    21    22    1
    28    25    26    1
@<TRIPOS>MOLECULE
*****
 26 28 0 0 0
SMALL
GASTEIGER

@<TRIPOS>ATOM
      1 C         140.4731  141.0537  165.8178 C.3     1  UNL1        0.2136
      2 C         139.9179  142.3179  165.2317 C.ar    1  UNL1        0.0157
      3 C         140.4979  143.6927  165.0790 C.ar    1  UNL1       -0.0011
      4 C         139.6886  144.7812  164.4387 C.ar    1  UNL1       -0.0002
      5 C         138.2992  144.4949  163.9512 C.ar    1  UNL1       -0.0003
      6 C         137.7192  143.1201  164.1039 C.ar    1  UNL1       -0.0044
      7 C         138.5285  142.0316  164.7442 C.ar    1  UNL1       -0.0202
      8 C         138.2251  140.5904  165.0290 C.3     1  UNL1        0.0584
      9 C         139.4270  139.9860  165.6925 C.3     1  UNL1        0.1471
     10 O         140.4551  139.1207  166.3590 O.3     1  UNL1       -0.3812
     11 H         140.1012  138.2242  166.4686 H       1  UNL1        0.2105
     12 O         141.8355  140.8865  166.4230 O.3     1  UNL1       -0.4726
     13 C         143.2657  138.6641  165.0032 C.3     1  UNL1        0.0342
     14 C         143.7747  140.0712  164.8981 C.ar    1  UNL1        0.0121
     15 C         144.9987  140.3671  164.0833 C.ar    1  UNL1       -0.0013
     16 C         145.5077  141.7742  163.9783 C.ar    1  UNL1       -0.0001
     17 C         144.7927  142.8854  164.6881 C.ar    1  UNL1        0.0031
     18 C         143.5686  142.5894  165.5030 C.ar    1  UNL1        0.0366
     19 C         143.0596  141.1824  165.6080 C.ar    1  UNL1        0.1349
     20 C         138.5957  138.7375  165.7066 C.3     1  UNL1        0.1001
     21 N         139.0360  137.5345  164.9262 N.3     1  UNL1       -0.2933
     22 H         138.4328  136.7625  165.2101 H       1  UNL1        0.1234
     23 C         139.0213  137.5667  163.4267 C.3     1  UNL1        0.1008
     24 C         140.2878  137.8376  162.6699 C.3     1  UNL1        0.1542
     25 O         141.3786  136.8084  162.6404 O.3     1  UNL1       -0.3805
     26 H         141.7430  136.6978  163.5326 H       1  UNL1        0.2105
@<TRIPOS>BOND
     1    13    14    1
     2    14    15   ar
     3    15    16   ar
     4    16    17   ar
     5    17    18   ar
     6    18    19   ar
     7    19    12    1
     8    12     1    1
     9     1     2    1
    10     2     3   ar
    11     3     4   ar
    12     4     5   ar
    13     5     6   ar
    14     6     7   ar
    15     7     8    1
    16     8     9    1
    17     9    10    1
    18     9    20    1
    19    20    21    1
    20    21    23    1
    21    23    24    1
    22    24    25    1
    23    19    14   ar
    24     9     1    1
    25     7     2   ar
    26    10    11    1
    27    21    22    1
    28    25    26    1
@<TRIPOS>MOLECULE
*****
 26 28 0 0 0
SMALL
GASTEIGER

@<TRIPOS>ATOM
      1 C         140.3111  141.4509  165.0352 C.3     1  UNL1        0.2136
      2 C         141.4067  142.4506  164.8108 C.ar    1  UNL1        0.0157
      3 C         142.8722  142.4221  165.1292 C.ar    1  UNL1       -0.0011
      4 C         143.7389  143.5950  164.7785 C.ar    1  UNL1       -0.0002
      5 C         143.1400  144.7966  164.1095 C.ar    1  UNL1       -0.0003
      6 C         141.6745  144.8252  163.7911 C.ar    1  UNL1       -0.0044
      7 C         140.8078  143.6522  164.1417 C.ar    1  UNL1       -0.0202
      8 C         139.3422  143.3951  163.9527 C.3     1  UNL1        0.0584
      9 C         139.0352  142.0346  164.5049 C.3     1  UNL1        0.1471
     10 O         138.4353  140.7396  164.9664 O.3     1  UNL1       -0.3812
     11 H         137.4853  140.7353  164.7704 H       1  UNL1        0.2105
     12 O         140.4646  140.1040  165.6772 O.3     1  UNL1       -0.4726
     13 C         143.1408  139.0339  166.5099 C.3     1  UNL1        0.0342
     14 C         142.1499  139.4672  167.5493 C.ar    1  UNL1        0.0121
     15 C         142.4971  139.3654  169.0050 C.ar    1  UNL1       -0.0013
     16 C         141.5062  139.7987  170.0444 C.ar    1  UNL1       -0.0001
     17 C         140.1681  140.3338  169.6282 C.ar    1  UNL1        0.0031
     18 C         139.8210  140.4355  168.1725 C.ar    1  UNL1        0.0366
     19 C         140.8119  140.0022  167.1330 C.ar    1  UNL1        0.1349
     20 C         137.6338  142.3476  164.0711 C.3     1  UNL1        0.1001
     21 N         136.9058  141.4106  163.1534 N.3     1  UNL1       -0.2933
     22 H         136.0535  141.8883  162.8606 H       1  UNL1        0.1234
     23 C         137.5736  140.9128  161.9059 C.3     1  UNL1        0.1008
     24 C         137.8708  139.4512  161.7465 C.3     1  UNL1        0.1542
     25 O         138.3267  138.6455  162.9268 O.3     1  UNL1       -0.3805
     26 H         139.1987  138.9581  163.2143 H       1  UNL1        0.2105
@<TRIPOS>BOND
     1    13    14    1
     2    14    15   ar
     3    15    16   ar
     4    16    17   ar
     5    17    18   ar
     6    18    19   ar
     7    19    12    1
     8    12     1    1
     9     1     2    1
    10     2     3   ar
    11     3     4   ar
    12     4     5   ar
    13     5     6   ar
    14     6     7   ar
    15     7     8    1
    16     8     9    1
    17     9    10    1
    18     9    20    1
    19    20    21    1
    20    21    23    1
    21    23    24    1
    22    24    25    1
    23    19    14   ar
    24     9     1    1
    25     7     2   ar
    26    10    11    1
    27    21    22    1
    28    25    26    1
@<TRIPOS>MOLECULE
*****
 26 28 0 0 0
SMALL
GASTEIGER

@<TRIPOS>ATOM
      1 C         141.1014  141.9127  163.4680 C.3     1  UNL1        0.2136
      2 C         142.5215  141.4521  163.6138 C.ar    1  UNL1        0.0157
      3 C         143.1644  140.1088  163.4346 C.ar    1  UNL1       -0.0011
      4 C         144.6394  139.9480  163.6546 C.ar    1  UNL1       -0.0002
      5 C         145.4715  141.1304  164.0538 C.ar    1  UNL1       -0.0003
      6 C         144.8286  142.4738  164.2329 C.ar    1  UNL1       -0.0044
      7 C         143.3536  142.6346  164.0130 C.ar    1  UNL1       -0.0202
      8 C         142.4477  143.8259  164.1139 C.3     1  UNL1        0.0584
      9 C         141.0558  143.3797  163.7771 C.3     1  UNL1        0.1471
     10 O         139.5903  143.2339  163.4925 O.3     1  UNL1       -0.3812
     11 H         139.1525  144.0925  163.6024 H       1  UNL1        0.2105
     12 O         139.9321  141.0564  163.0811 O.3     1  UNL1       -0.4726
     13 C         140.1938  138.1529  162.3727 C.3     1  UNL1        0.0342
     14 C         139.5580  138.5538  163.6708 C.ar    1  UNL1        0.0121
     15 C         139.0530  137.5031  164.6147 C.ar    1  UNL1       -0.0013
     16 C         138.4173  137.9040  165.9127 C.ar    1  UNL1       -0.0001
     17 C         138.2864  139.3557  166.2670 C.ar    1  UNL1        0.0031
     18 C         138.7914  140.4064  165.3231 C.ar    1  UNL1        0.0366
     19 C         139.4271  140.0055  164.0250 C.ar    1  UNL1        0.1349
     20 C         140.7039  144.8164  164.0267 C.3     1  UNL1        0.1001
     21 N         141.0472  145.8608  163.0063 N.3     1  UNL1       -0.2933
     22 H         141.9339  145.5819  162.5863 H       1  UNL1        0.1234
     23 C         140.1027  146.1442  161.8760 C.3     1  UNL1        0.1008
     24 C         140.1198  145.2802  160.6499 C.3     1  UNL1        0.1542
     25 O         139.2803  144.0383  160.5959 O.3     1  UNL1       -0.3805
     26 H         139.6056  143.3994  161.2492 H       1  UNL1        0.2105
@<TRIPOS>BOND
     1    13    14    1
     2    14    15   ar
     3    15    16   ar
     4    16    17   ar
     5    17    18   ar
     6    18    19   ar
     7    19    12    1
     8    12     1    1
     9     1     2    1
    10     2     3   ar
    11     3     4   ar
    12     4     5   ar
    13     5     6   ar
    14     6     7   ar
    15     7     8    1
    16     8     9    1
    17     9    10    1
    18     9    20    1
    19    20    21    1
    20    21    23    1
    21    23    24    1
    22    24    25    1
    23    19    14   ar
    24     9     1    1
    25     7     2   ar
    26    10    11    1
    27    21    22    1
    28    25    26    1
@<TRIPOS>MOLECULE
*****
 26 28 0 0 0
SMALL
GASTEIGER

@<TRIPOS>ATOM
      1 C         140.7950  139.8640  165.0455 C.3     1  UNL1        0.2136
      2 C         140.7684  139.9281  166.5439 C.ar    1  UNL1        0.0157
      3 C         141.8639  140.0249  167.5639 C.ar    1  UNL1       -0.0011
      4 C         141.5264  140.0726  169.0246 C.ar    1  UNL1       -0.0002
      5 C         140.0935  140.0234  169.4653 C.ar    1  UNL1       -0.0003
      6 C         138.9980  139.9266  168.4453 C.ar    1  UNL1       -0.0044
      7 C         139.3355  139.8789  166.9846 C.ar    1  UNL1       -0.0202
      8 C         138.4765  139.7844  165.7585 C.3     1  UNL1        0.0584
      9 C         139.3785  139.7752  164.5601 C.3     1  UNL1        0.1471
     10 O         140.0121  139.7461  163.2008 O.3     1  UNL1       -0.3812
     11 H         139.3209  139.6835  162.5232 H       1  UNL1        0.2105
     12 O         142.0226  139.8850  164.1838 O.3     1  UNL1       -0.4726
     13 C         144.9942  139.4733  164.1784 C.3     1  UNL1        0.0342
     14 C         144.4296  140.8624  164.2167 C.ar    1  UNL1        0.0121
     15 C         145.3507  142.0457  164.2523 C.ar    1  UNL1       -0.0013
     16 C         144.7861  143.4349  164.2906 C.ar    1  UNL1       -0.0001
     17 C         143.3003  143.6408  164.2933 C.ar    1  UNL1        0.0031
     18 C         142.3792  142.4575  164.2577 C.ar    1  UNL1        0.0366
     19 C         142.9438  141.0683  164.2194 C.ar    1  UNL1        0.1349
     20 C         138.0944  139.6803  163.7906 C.3     1  UNL1        0.1001
     21 N         137.1881  140.8717  163.6941 N.3     1  UNL1       -0.2933
     22 H         137.0989  141.2509  164.6368 H       1  UNL1        0.1234
     23 C         137.5503  142.0190  162.7983 C.3     1  UNL1        0.1008
     24 C         137.7394  143.3905  163.3756 C.3     1  UNL1        0.1542
     25 O         137.4931  144.6021  162.5263 O.3     1  UNL1       -0.3805
     26 H         138.1484  144.6349  161.8119 H       1  UNL1        0.2105
@<TRIPOS>BOND
     1    13    14    1
     2    14    15   ar
     3    15    16   ar
     4    16    17   ar
     5    17    18   ar
     6    18    19   ar
     7    19    12    1
     8    12     1    1
     9     1     2    1
    10     2     3   ar
    11     3     4   ar
    12     4     5   ar
    13     5     6   ar
    14     6     7   ar
    15     7     8    1
    16     8     9    1
    17     9    10    1
    18     9    20    1
    19    20    21    1
    20    21    23    1
    21    23    24    1
    22    24    25    1
    23    19    14   ar
    24     9     1    1
    25     7     2   ar
    26    10    11    1
    27    21    22    1
    28    25    26    1
@<TRIPOS>MOLECULE
*****
 26 28 0 0 0
SMALL
GASTEIGER

@<TRIPOS>ATOM
      1 C         139.8345  141.4723  165.6701 C.3     1  UNL1        0.2136
      2 C         139.9487  141.6811  167.1511 C.ar    1  UNL1        0.0157
      3 C         140.3718  142.8659  167.9680 C.ar    1  UNL1       -0.0011
      4 C         140.3864  142.7777  169.4653 C.ar    1  UNL1       -0.0002
      5 C         139.9780  141.5049  170.1457 C.ar    1  UNL1       -0.0003
      6 C         139.5549  140.3201  169.3289 C.ar    1  UNL1       -0.0044
      7 C         139.5402  140.4083  167.8316 C.ar    1  UNL1       -0.0202
      8 C         139.1736  139.4128  166.7711 C.3     1  UNL1        0.0584
      9 C         139.3555  140.0704  165.4352 C.3     1  UNL1        0.1471
     10 O         139.4410  140.4516  163.9870 O.3     1  UNL1       -0.3812
     11 H         139.1712  139.6988  163.4380 H       1  UNL1        0.2105
     12 O         140.1449  142.4872  164.6101 O.3     1  UNL1       -0.4726
     13 C         140.4801  145.1707  163.3112 C.3     1  UNL1        0.0342
     14 C         141.6647  144.4767  163.9155 C.ar    1  UNL1        0.0121
     15 C         143.0168  145.1244  163.8704 C.ar    1  UNL1       -0.0013
     16 C         144.2014  144.4305  164.4747 C.ar    1  UNL1       -0.0001
     17 C         144.0339  143.0888  165.1242 C.ar    1  UNL1        0.0031
     18 C         142.6817  142.4411  165.1693 C.ar    1  UNL1        0.0366
     19 C         141.4971  143.1350  164.5650 C.ar    1  UNL1        0.1349
     20 C         138.8944  138.7482  164.8976 C.3     1  UNL1        0.1001
     21 N         139.7318  137.5211  165.1046 N.3     1  UNL1       -0.2933
     22 H         139.1132  136.7189  164.9857 H       1  UNL1        0.1234
     23 C         140.9305  137.2759  164.2368 C.3     1  UNL1        0.1008
     24 C         140.8428  137.4998  162.7562 C.3     1  UNL1        0.1542
     25 O         141.9849  137.1023  161.8687 O.3     1  UNL1       -0.3805
     26 H         142.7579  137.6524  162.0706 H       1  UNL1        0.2105
@<TRIPOS>BOND
     1    13    14    1
     2    14    15   ar
     3    15    16   ar
     4    16    17   ar
     5    17    18   ar
     6    18    19   ar
     7    19    12    1
     8    12     1    1
     9     1     2    1
    10     2     3   ar
    11     3     4   ar
    12     4     5   ar
    13     5     6   ar
    14     6     7   ar
    15     7     8    1
    16     8     9    1
    17     9    10    1
    18     9    20    1
    19    20    21    1
    20    21    23    1
    21    23    24    1
    22    24    25    1
    23    19    14   ar
    24     9     1    1
    25     7     2   ar
    26    10    11    1
    27    21    22    1
    28    25    26    1
