@<TRIPOS>MOLECULE
*****
 34 37 0 0 0
SMALL
GASTEIGER

@<TRIPOS>ATOM
      1 C         141.0403  138.2193  155.9847 C.2     1  UNL1        0.2383
      2 O         139.7065  138.5153  155.3655 O.2     1  UNL1       -0.2735
      3 N         141.1788  138.1657  157.4773 N.am    1  UNL1       -0.2695
      4 C         142.5125  137.8698  158.0966 C.3     1  UNL1        0.1184
      5 C         142.6511  137.8162  159.5892 C.3     1  UNL1        0.1299
      6 N         141.4560  138.0586  160.4626 N.ar    1  UNL1       -0.3005
      7 C         140.1222  138.3546  159.8433 C.ar    1  UNL1        0.1416
      8 N         139.1298  138.5497  160.9511 N.ar    1  UNL1       -0.2279
      9 C         139.8503  138.3743  162.2550 C.ar    1  UNL1        0.1125
     10 C         141.2879  138.0708  161.9531 C.ar    1  UNL1        0.1318
     11 C         139.9837  138.4081  158.3507 C.3     1  UNL1        0.1578
     12 C         139.2402  138.4833  163.6211 C.ar    1  UNL1        0.0205
     13 C         138.8008  139.8197  164.1417 C.ar    1  UNL1        0.0039
     14 C         138.1908  139.9287  165.5077 C.ar    1  UNL1        0.0297
     15 C         138.0202  138.7015  166.3530 C.ar    1  UNL1        0.1401
     16 F         137.4102  138.8105  167.7191 F       1  UNL1       -0.2042
     17 C         138.4597  137.3651  165.8324 C.ar    1  UNL1        0.0297
     18 C         139.0697  137.2561  164.4664 C.ar    1  UNL1        0.0039
     19 C         142.5461  139.4442  155.1293 C.3     1  UNL1        0.0249
     20 C         142.2354  137.9769  155.1114 C.3     1  UNL1        0.1089
     21 C         141.9247  136.5096  155.0934 C.3     1  UNL1        0.0249
     22 N         143.4306  137.7346  154.2380 N.3     1  UNL1       -0.3164
     23 H         143.5024  136.7389  154.0285 H       1  UNL1        0.1192
     24 H         144.2739  138.0416  154.7228 H       1  UNL1        0.1192
     25 N         142.3679  137.8230  162.9641 N.pl3   1  UNL1       -0.2980
     26 H         142.9391  137.0247  162.8886 H       1  UNL1        0.1536
     27 C         142.5776  138.7914  164.0903 C.ar    1  UNL1        0.0518
     28 C         142.6916  140.2597  163.8054 C.ar    1  UNL1        0.0171
     29 C         142.9013  141.2281  164.9317 C.ar    1  UNL1        0.0332
     30 C         142.9970  140.7281  166.3427 C.ar    1  UNL1        0.1675
     31 F         143.2068  141.6965  167.4688 F       1  UNL1       -0.2018
     32 C         142.8830  139.2598  166.6275 C.ar    1  UNL1        0.1686
     33 F         142.9787  138.7599  168.0385 F       1  UNL1       -0.2018
     34 C         142.6733  138.2915  165.5013 C.ar    1  UNL1        0.0466
@<TRIPOS>BOND
     1    19    20    1
     2    20    21    1
     3    20    22    1
     4    20     1    1
     5     1     2    2
     6     1     3   am
     7     3     4    1
     8     4     5    1
     9     5     6    1
    10     6     7   ar
    11     7     8   ar
    12     8     9   ar
    13     9    12    1
    14    12    13   ar
    15    13    14   ar
    16    14    15   ar
    17    15    16    1
    18    15    17   ar
    19    17    18   ar
    20     9    10   ar
    21    10    25    1
    22    25    27    1
    23    27    28   ar
    24    28    29   ar
    25    29    30   ar
    26    30    31    1
    27    30    32   ar
    28    32    33    1
    29    32    34   ar
    30     7    11    1
    31    11     3    1
    32    10     6   ar
    33    34    27   ar
    34    18    12   ar
    35    22    23    1
    36    22    24    1
    37    25    26    1
@<TRIPOS>MOLECULE
*****
 34 37 0 0 0
SMALL
GASTEIGER

@<TRIPOS>ATOM
      1 C         141.0995  138.2452  155.9736 C.2     1  UNL1        0.2383
      2 O         139.7439  138.3993  155.3502 O.2     1  UNL1       -0.2735
      3 N         141.2427  138.2456  157.4667 N.am    1  UNL1       -0.2695
      4 C         142.5983  138.0916  158.0901 C.3     1  UNL1        0.1184
      5 C         142.7415  138.0920  159.5833 C.3     1  UNL1        0.1299
      6 N         141.5293  138.2465  160.4530 N.ar    1  UNL1       -0.3005
      7 C         140.1737  138.4006  159.8296 C.ar    1  UNL1        0.1416
      8 N         139.1677  138.5333  160.9344 N.ar    1  UNL1       -0.2279
      9 C         139.9016  138.4612  162.2406 C.ar    1  UNL1        0.1125
     10 C         141.3611  138.2839  161.9431 C.ar    1  UNL1        0.1318
     11 C         140.0305  138.4002  158.3364 C.3     1  UNL1        0.1578
     12 C         139.2844  138.5506  163.6048 C.ar    1  UNL1        0.0205
     13 C         139.1865  137.3260  164.4655 C.ar    1  UNL1        0.0039
     14 C         138.5694  137.4154  165.8297 C.ar    1  UNL1        0.0297
     15 C         138.0501  138.7294  166.3332 C.ar    1  UNL1        0.1401
     16 F         137.4329  138.8189  167.6975 F       1  UNL1       -0.2042
     17 C         138.1480  139.9541  165.4726 C.ar    1  UNL1        0.0297
     18 C         138.7652  139.8647  164.1084 C.ar    1  UNL1        0.0039
     19 C         142.1370  136.6011  155.1249 C.3     1  UNL1        0.0249
     20 C         142.3117  138.0907  155.1039 C.3     1  UNL1        0.1089
     21 C         142.4865  139.5803  155.0828 C.3     1  UNL1        0.0249
     22 N         143.5241  137.9361  154.2341 N.3     1  UNL1       -0.3164
     23 H         143.9109  138.8561  154.0234 H       1  UNL1        0.1192
     24 H         143.2621  137.4704  153.3653 H       1  UNL1        0.1192
     25 N         142.4596  138.1650  162.9575 N.pl3   1  UNL1       -0.2980
     26 H         142.7900  137.2766  163.2234 H       1  UNL1        0.1536
     27 C         143.0548  139.3997  163.5668 C.ar    1  UNL1        0.0518
     28 C         142.3415  140.1042  164.6825 C.ar    1  UNL1        0.0171
     29 C         142.9368  141.3390  165.2918 C.ar    1  UNL1        0.0332
     30 C         144.2453  141.8692  164.7853 C.ar    1  UNL1        0.1675
     31 F         144.8405  143.1039  165.3946 F       1  UNL1       -0.2018
     32 C         144.9586  141.1647  163.6695 C.ar    1  UNL1        0.1686
     33 F         146.2672  141.6949  163.1630 F       1  UNL1       -0.2018
     34 C         144.3634  139.9300  163.0603 C.ar    1  UNL1        0.0466
@<TRIPOS>BOND
     1    19    20    1
     2    20    21    1
     3    20    22    1
     4    20     1    1
     5     1     2    2
     6     1     3   am
     7     3     4    1
     8     4     5    1
     9     5     6    1
    10     6     7   ar
    11     7     8   ar
    12     8     9   ar
    13     9    12    1
    14    12    13   ar
    15    13    14   ar
    16    14    15   ar
    17    15    16    1
    18    15    17   ar
    19    17    18   ar
    20     9    10   ar
    21    10    25    1
    22    25    27    1
    23    27    28   ar
    24    28    29   ar
    25    29    30   ar
    26    30    31    1
    27    30    32   ar
    28    32    33    1
    29    32    34   ar
    30     7    11    1
    31    11     3    1
    32    10     6   ar
    33    34    27   ar
    34    18    12   ar
    35    22    23    1
    36    22    24    1
    37    25    26    1
@<TRIPOS>MOLECULE
*****
 34 37 0 0 0
SMALL
GASTEIGER

@<TRIPOS>ATOM
      1 C         140.1885  140.8516  169.6335 C.2     1  UNL1        0.2383
      2 O         139.0932  139.9118  170.0422 O.2     1  UNL1       -0.2735
      3 N         140.4742  141.0834  168.1794 N.am    1  UNL1       -0.2695
      4 C         141.5695  142.0231  167.7707 C.3     1  UNL1        0.1184
      5 C         141.8552  142.2549  166.3165 C.3     1  UNL1        0.1299
      6 N         141.0455  141.5470  165.2710 N.ar    1  UNL1       -0.3005
      7 C         139.9502  140.6072  165.6796 C.ar    1  UNL1        0.1416
      8 N         139.3239  140.0553  164.4333 N.ar    1  UNL1       -0.2279
      9 C         140.0322  140.6539  163.2544 C.ar    1  UNL1        0.1125
     10 C         141.0962  141.5758  163.7721 C.ar    1  UNL1        0.1318
     11 C         139.6645  140.3754  167.1338 C.3     1  UNL1        0.1578
     12 C         139.7297  140.3790  161.8111 C.ar    1  UNL1        0.0205
     13 C         138.5817  141.0731  161.1401 C.ar    1  UNL1        0.0039
     14 C         138.2792  140.7982  159.6969 C.ar    1  UNL1        0.0297
     15 C         139.1246  139.8292  158.9248 C.ar    1  UNL1        0.1401
     16 F         138.8221  139.5543  157.4815 F       1  UNL1       -0.2042
     17 C         140.2726  139.1351  159.5958 C.ar    1  UNL1        0.0297
     18 C         140.5752  139.4100  161.0390 C.ar    1  UNL1        0.0039
     19 C         141.9871  140.4318  170.6769 C.3     1  UNL1        0.0249
     20 C         140.9982  141.5596  170.6791 C.3     1  UNL1        0.1089
     21 C         140.0092  142.6874  170.6812 C.3     1  UNL1        0.0249
     22 N         141.8079  142.2675  171.7247 N.3     1  UNL1       -0.3164
     23 H         141.3574  143.1511  171.9630 H       1  UNL1        0.1192
     24 H         142.7443  142.4498  171.3638 H       1  UNL1        0.1192
     25 N         142.0445  142.3847  162.9375 N.pl3   1  UNL1       -0.2980
     26 H         143.0160  142.2950  163.0697 H       1  UNL1        0.1536
     27 C         141.5127  143.3301  161.9016 C.ar    1  UNL1        0.0518
     28 C         141.6974  143.0271  160.4442 C.ar    1  UNL1        0.0171
     29 C         141.1655  143.9727  159.4082 C.ar    1  UNL1        0.0332
     30 C         140.4491  145.2213  159.8297 C.ar    1  UNL1        0.1675
     31 F         139.9173  146.1667  158.7937 F       1  UNL1       -0.2018
     32 C         140.2644  145.5243  161.2871 C.ar    1  UNL1        0.1686
     33 F         139.5479  146.7729  161.7086 F       1  UNL1       -0.2018
     34 C         140.7962  144.5788  162.3230 C.ar    1  UNL1        0.0466
@<TRIPOS>BOND
     1    19    20    1
     2    20    21    1
     3    20    22    1
     4    20     1    1
     5     1     2    2
     6     1     3   am
     7     3     4    1
     8     4     5    1
     9     5     6    1
    10     6     7   ar
    11     7     8   ar
    12     8     9   ar
    13     9    12    1
    14    12    13   ar
    15    13    14   ar
    16    14    15   ar
    17    15    16    1
    18    15    17   ar
    19    17    18   ar
    20     9    10   ar
    21    10    25    1
    22    25    27    1
    23    27    28   ar
    24    28    29   ar
    25    29    30   ar
    26    30    31    1
    27    30    32   ar
    28    32    33    1
    29    32    34   ar
    30     7    11    1
    31    11     3    1
    32    10     6   ar
    33    34    27   ar
    34    18    12   ar
    35    22    23    1
    36    22    24    1
    37    25    26    1
@<TRIPOS>MOLECULE
*****
 34 37 0 0 0
SMALL
GASTEIGER

@<TRIPOS>ATOM
      1 C         142.1581  140.7427  169.8243 C.2     1  UNL1        0.2383
      2 O         143.3936  140.0279  170.2855 O.2     1  UNL1       -0.2735
      3 N         141.7941  140.7485  168.3692 N.am    1  UNL1       -0.2695
      4 C         140.5586  141.4632  167.9080 C.3     1  UNL1        0.1184
      5 C         140.1946  141.4690  166.4528 C.3     1  UNL1        0.1299
      6 N         141.0659  140.7600  165.4589 N.ar    1  UNL1       -0.3005
      7 C         142.3014  140.0453  165.9201 C.ar    1  UNL1        0.1416
      8 N         142.9618  139.4382  164.7178 N.ar    1  UNL1       -0.2279
      9 C         142.1345  139.7778  163.5136 C.ar    1  UNL1        0.1125
     10 C         140.9628  140.5948  163.9716 C.ar    1  UNL1        0.1318
     11 C         142.6654  140.0395  167.3752 C.3     1  UNL1        0.1578
     12 C         142.4274  139.3718  162.0995 C.ar    1  UNL1        0.0205
     13 C         142.2153  137.9510  161.6680 C.ar    1  UNL1        0.0039
     14 C         142.5082  137.5450  160.2540 C.ar    1  UNL1        0.0297
     15 C         143.0131  138.5598  159.2716 C.ar    1  UNL1        0.1401
     16 F         143.3060  138.1538  157.8576 F       1  UNL1       -0.2042
     17 C         143.2252  139.9806  159.7032 C.ar    1  UNL1        0.0297
     18 C         142.9323  140.3866  161.1171 C.ar    1  UNL1        0.0039
     19 C         142.1468  142.6748  170.6998 C.3     1  UNL1        0.0249
     20 C         141.2867  141.4517  170.8183 C.3     1  UNL1        0.1089
     21 C         140.4266  140.2285  170.9367 C.3     1  UNL1        0.0249
     22 N         140.4153  142.1607  171.8123 N.3     1  UNL1       -0.3164
     23 H         139.6664  141.5373  172.1135 H       1  UNL1        0.1192
     24 H         140.0124  142.9918  171.3793 H       1  UNL1        0.1192
     25 N         139.8783  141.1491  163.0961 N.pl3   1  UNL1       -0.2980
     26 H         139.1969  140.5484  162.7164 H       1  UNL1        0.1536
     27 C         139.8319  142.6186  162.7990 C.ar    1  UNL1        0.0518
     28 C         138.9523  143.5210  163.6127 C.ar    1  UNL1        0.0171
     29 C         138.9059  144.9906  163.3155 C.ar    1  UNL1        0.0332
     30 C         139.7392  145.5578  162.2046 C.ar    1  UNL1        0.1675
     31 F         139.6928  147.0273  161.9075 F       1  UNL1       -0.2018
     32 C         140.6187  144.6554  161.3909 C.ar    1  UNL1        0.1686
     33 F         141.4520  145.2226  160.2800 F       1  UNL1       -0.2018
     34 C         140.6651  143.1859  161.6881 C.ar    1  UNL1        0.0466
@<TRIPOS>BOND
     1    19    20    1
     2    20    21    1
     3    20    22    1
     4    20     1    1
     5     1     2    2
     6     1     3   am
     7     3     4    1
     8     4     5    1
     9     5     6    1
    10     6     7   ar
    11     7     8   ar
    12     8     9   ar
    13     9    12    1
    14    12    13   ar
    15    13    14   ar
    16    14    15   ar
    17    15    16    1
    18    15    17   ar
    19    17    18   ar
    20     9    10   ar
    21    10    25    1
    22    25    27    1
    23    27    28   ar
    24    28    29   ar
    25    29    30   ar
    26    30    31    1
    27    30    32   ar
    28    32    33    1
    29    32    34   ar
    30     7    11    1
    31    11     3    1
    32    10     6   ar
    33    34    27   ar
    34    18    12   ar
    35    22    23    1
    36    22    24    1
    37    25    26    1
@<TRIPOS>MOLECULE
*****
 34 37 0 0 0
SMALL
GASTEIGER

@<TRIPOS>ATOM
      1 C         140.2281  141.6576  169.8443 C.2     1  UNL1        0.2383
      2 O         140.4467  142.9635  170.5491 O.2     1  UNL1       -0.2735
      3 N         140.2347  141.6040  168.3453 N.am    1  UNL1       -0.2695
      4 C         140.0160  140.2981  167.6406 C.3     1  UNL1        0.1184
      5 C         140.0227  140.2445  166.1415 C.3     1  UNL1        0.1299
      6 N         140.2480  141.4968  165.3473 N.ar    1  UNL1       -0.3005
      7 C         140.4667  142.8027  166.0520 C.ar    1  UNL1        0.1416
      8 N         140.6617  143.8645  165.0105 N.ar    1  UNL1       -0.2279
      9 C         140.5635  143.2148  163.6621 C.ar    1  UNL1        0.1125
     10 C         140.3078  141.7514  163.8703 C.ar    1  UNL1        0.1318
     11 C         140.4601  142.8563  167.5510 C.3     1  UNL1        0.1578
     12 C         140.6974  143.9069  162.3380 C.ar    1  UNL1        0.0205
     13 C         139.8928  145.1399  162.0515 C.ar    1  UNL1        0.0039
     14 C         140.0267  145.8320  160.7275 C.ar    1  UNL1        0.0297
     15 C         140.9652  145.2910  159.6900 C.ar    1  UNL1        0.1401
     16 F         141.0992  145.9831  158.3659 F       1  UNL1       -0.2042
     17 C         141.7699  144.0580  159.9766 C.ar    1  UNL1        0.0297
     18 C         141.6360  143.3659  161.3006 C.ar    1  UNL1        0.0039
     19 C         138.5461  140.4415  170.2825 C.3     1  UNL1        0.0249
     20 C         140.0027  140.4053  170.6386 C.3     1  UNL1        0.1089
     21 C         141.4594  140.3691  170.9948 C.3     1  UNL1        0.0249
     22 N         139.7774  139.1530  171.4329 N.3     1  UNL1       -0.3164
     23 H         140.6601  138.8459  171.8413 H       1  UNL1        0.1192
     24 H         139.4138  138.4227  170.8205 H       1  UNL1        0.1192
     25 N         140.1413  140.7233  162.7909 N.pl3   1  UNL1       -0.2980
     26 H         139.2838  140.6453  162.3134 H       1  UNL1        0.1536
     27 C         141.2810  139.8138  162.4389 C.ar    1  UNL1        0.0518
     28 C         141.1453  138.8476  161.2997 C.ar    1  UNL1        0.0171
     29 C         142.2852  137.9381  160.9477 C.ar    1  UNL1        0.0332
     30 C         143.5606  137.9950  161.7351 C.ar    1  UNL1        0.1675
     31 F         144.7004  137.0855  161.3832 F       1  UNL1       -0.2018
     32 C         143.6963  138.9612  162.8744 C.ar    1  UNL1        0.1686
     33 F         144.9718  139.0181  163.6618 F       1  UNL1       -0.2018
     34 C         142.5565  139.8706  163.2263 C.ar    1  UNL1        0.0466
@<TRIPOS>BOND
     1    19    20    1
     2    20    21    1
     3    20    22    1
     4    20     1    1
     5     1     2    2
     6     1     3   am
     7     3     4    1
     8     4     5    1
     9     5     6    1
    10     6     7   ar
    11     7     8   ar
    12     8     9   ar
    13     9    12    1
    14    12    13   ar
    15    13    14   ar
    16    14    15   ar
    17    15    16    1
    18    15    17   ar
    19    17    18   ar
    20     9    10   ar
    21    10    25    1
    22    25    27    1
    23    27    28   ar
    24    28    29   ar
    25    29    30   ar
    26    30    31    1
    27    30    32   ar
    28    32    33    1
    29    32    34   ar
    30     7    11    1
    31    11     3    1
    32    10     6   ar
    33    34    27   ar
    34    18    12   ar
    35    22    23    1
    36    22    24    1
    37    25    26    1
@<TRIPOS>MOLECULE
*****
 34 37 0 0 0
SMALL
GASTEIGER

@<TRIPOS>ATOM
      1 C         140.7190  142.0299  169.7720 C.2     1  UNL1        0.2383
      2 O         139.4199  142.6504  170.1929 O.2     1  UNL1       -0.2735
      3 N         141.1535  142.0992  168.3380 N.am    1  UNL1       -0.2695
      4 C         142.4526  141.4787  167.9170 C.3     1  UNL1        0.1184
      5 C         142.8871  141.5480  166.4830 C.3     1  UNL1        0.1299
      6 N         142.0224  142.2379  165.4699 N.ar    1  UNL1       -0.3005
      7 C         140.7233  142.8584  165.8908 C.ar    1  UNL1        0.1416
      8 N         140.0855  143.4671  164.6772 N.ar    1  UNL1       -0.2279
      9 C         140.9905  143.2227  163.5062 C.ar    1  UNL1        0.1125
     10 C         142.1876  142.4630  163.9961 C.ar    1  UNL1        0.1318
     11 C         140.2888  142.7891  167.3248 C.3     1  UNL1        0.1578
     12 C         140.7422  143.6610  162.0933 C.ar    1  UNL1        0.0205
     13 C         140.4956  142.6390  161.0233 C.ar    1  UNL1        0.0039
     14 C         140.2472  143.0773  159.6105 C.ar    1  UNL1        0.0297
     15 C         140.2454  144.5375  159.2676 C.ar    1  UNL1        0.1401
     16 F         139.9971  144.9758  157.8546 F       1  UNL1       -0.2042
     17 C         140.4920  145.5595  160.3375 C.ar    1  UNL1        0.0297
     18 C         140.7404  145.1212  161.7503 C.ar    1  UNL1        0.0039
     19 C         140.7906  140.0798  170.6039 C.3     1  UNL1        0.0249
     20 C         141.5837  141.3400  170.7851 C.3     1  UNL1        0.1089
     21 C         142.3768  142.6002  170.9663 C.3     1  UNL1        0.0249
     22 N         142.4484  140.6501  171.7983 N.3     1  UNL1       -0.3164
     23 H         143.1528  141.3017  172.1441 H       1  UNL1        0.1192
     24 H         142.9090  139.8504  171.3639 H       1  UNL1        0.1192
     25 N         143.3464  142.0083  163.1592 N.pl3   1  UNL1       -0.2980
     26 H         144.1542  142.5670  163.0919 H       1  UNL1        0.1536
     27 C         143.2745  140.7024  162.4249 C.ar    1  UNL1        0.0518
     28 C         144.0414  140.5159  161.1494 C.ar    1  UNL1        0.0171
     29 C         143.9694  139.2098  160.4150 C.ar    1  UNL1        0.0332
     30 C         143.1306  138.0903  160.9563 C.ar    1  UNL1        0.1675
     31 F         143.0587  136.7843  160.2220 F       1  UNL1       -0.2018
     32 C         142.3636  138.2768  162.2318 C.ar    1  UNL1        0.1686
     33 F         141.5248  137.1573  162.7731 F       1  UNL1       -0.2018
     34 C         142.4356  139.5828  162.9661 C.ar    1  UNL1        0.0466
@<TRIPOS>BOND
     1    19    20    1
     2    20    21    1
     3    20    22    1
     4    20     1    1
     5     1     2    2
     6     1     3   am
     7     3     4    1
     8     4     5    1
     9     5     6    1
    10     6     7   ar
    11     7     8   ar
    12     8     9   ar
    13     9    12    1
    14    12    13   ar
    15    13    14   ar
    16    14    15   ar
    17    15    16    1
    18    15    17   ar
    19    17    18   ar
    20     9    10   ar
    21    10    25    1
    22    25    27    1
    23    27    28   ar
    24    28    29   ar
    25    29    30   ar
    26    30    31    1
    27    30    32   ar
    28    32    33    1
    29    32    34   ar
    30     7    11    1
    31    11     3    1
    32    10     6   ar
    33    34    27   ar
    34    18    12   ar
    35    22    23    1
    36    22    24    1
    37    25    26    1
@<TRIPOS>MOLECULE
*****
 34 37 0 0 0
SMALL
GASTEIGER

@<TRIPOS>ATOM
      1 C         140.6849  138.0707  157.4475 C.2     1  UNL1        0.2383
      2 O         139.3090  137.6109  157.0661 O.2     1  UNL1       -0.2735
      3 N         140.9849  138.4396  158.8701 N.am    1  UNL1       -0.2695
      4 C         142.3608  138.8994  159.2515 C.3     1  UNL1        0.1184
      5 C         142.6608  139.2683  160.6741 C.3     1  UNL1        0.1299
      6 N         141.5850  139.1775  161.7154 N.ar    1  UNL1       -0.3005
      7 C         140.2091  138.7177  161.3340 C.ar    1  UNL1        0.1416
      8 N         139.3578  138.7283  162.5691 N.ar    1  UNL1       -0.2279
      9 C         140.2076  139.1947  163.7137 C.ar    1  UNL1        0.1125
     10 C         141.5841  139.4722  163.1861 C.ar    1  UNL1        0.1318
     11 C         139.9090  138.3488  159.9114 C.3     1  UNL1        0.1578
     12 C         139.7597  139.3552  165.1363 C.ar    1  UNL1        0.0205
     13 C         138.4637  138.7496  165.5874 C.ar    1  UNL1        0.0039
     14 C         138.0157  138.9101  167.0099 C.ar    1  UNL1        0.0297
     15 C         138.8638  139.6763  167.9813 C.ar    1  UNL1        0.1401
     16 F         138.4158  139.8369  169.4038 F       1  UNL1       -0.2042
     17 C         140.1598  140.2820  167.5302 C.ar    1  UNL1        0.0297
     18 C         140.6077  140.1215  166.1077 C.ar    1  UNL1        0.0039
     19 C         141.3671  139.5810  156.1233 C.3     1  UNL1        0.0249
     20 C         141.7608  138.1615  156.4063 C.3     1  UNL1        0.1089
     21 C         142.1544  136.7421  156.6892 C.3     1  UNL1        0.0249
     22 N         142.8367  138.2524  155.3650 N.3     1  UNL1       -0.3164
     23 H         143.3330  137.3629  155.3103 H       1  UNL1        0.1192
     24 H         143.4919  138.9924  155.6168 H       1  UNL1        0.1192
     25 N         142.7542  139.9591  163.9884 N.pl3   1  UNL1       -0.2980
     26 H         143.3374  139.3138  164.4497 H       1  UNL1        0.1536
     27 C         143.0359  141.4290  164.0879 C.ar    1  UNL1        0.0518
     28 C         142.2908  142.3962  163.2164 C.ar    1  UNL1        0.0171
     29 C         142.5726  143.8662  163.3159 C.ar    1  UNL1        0.0332
     30 C         143.5995  144.3690  164.2869 C.ar    1  UNL1        0.1675
     31 F         143.8812  145.8389  164.3863 F       1  UNL1       -0.2018
     32 C         144.3446  143.4018  165.1583 C.ar    1  UNL1        0.1686
     33 F         145.3714  143.9046  166.1293 F       1  UNL1       -0.2018
     34 C         144.0628  141.9319  165.0588 C.ar    1  UNL1        0.0466
@<TRIPOS>BOND
     1    19    20    1
     2    20    21    1
     3    20    22    1
     4    20     1    1
     5     1     2    2
     6     1     3   am
     7     3     4    1
     8     4     5    1
     9     5     6    1
    10     6     7   ar
    11     7     8   ar
    12     8     9   ar
    13     9    12    1
    14    12    13   ar
    15    13    14   ar
    16    14    15   ar
    17    15    16    1
    18    15    17   ar
    19    17    18   ar
    20     9    10   ar
    21    10    25    1
    22    25    27    1
    23    27    28   ar
    24    28    29   ar
    25    29    30   ar
    26    30    31    1
    27    30    32   ar
    28    32    33    1
    29    32    34   ar
    30     7    11    1
    31    11     3    1
    32    10     6   ar
    33    34    27   ar
    34    18    12   ar
    35    22    23    1
    36    22    24    1
    37    25    26    1
@<TRIPOS>MOLECULE
*****
 34 37 0 0 0
SMALL
GASTEIGER

@<TRIPOS>ATOM
      1 C         142.2781  142.0043  169.8047 C.2     1  UNL1        0.2383
      2 O         143.0632  143.2560  170.0625 O.2     1  UNL1       -0.2735
      3 N         142.2070  141.4357  168.4184 N.am    1  UNL1       -0.2695
      4 C         141.4219  140.1839  168.1606 C.3     1  UNL1        0.1184
      5 C         141.3508  139.6153  166.7743 C.3     1  UNL1        0.1299
      6 N         142.0648  140.2986  165.6459 N.ar    1  UNL1       -0.3005
      7 C         142.8500  141.5503  165.9038 C.ar    1  UNL1        0.1416
      8 N         143.4457  142.0002  164.6027 N.ar    1  UNL1       -0.2279
      9 C         143.0287  141.0264  163.5407 C.ar    1  UNL1        0.1125
     10 C         142.1753  139.9747  164.1855 C.ar    1  UNL1        0.1318
     11 C         142.9211  142.1189  167.2900 C.3     1  UNL1        0.1578
     12 C         143.3999  141.0926  162.0888 C.ar    1  UNL1        0.0205
     13 C         143.4440  142.4168  161.3856 C.ar    1  UNL1        0.0039
     14 C         143.8152  142.4831  159.9338 C.ar    1  UNL1        0.0297
     15 C         144.1423  141.2251  159.1852 C.ar    1  UNL1        0.1401
     16 F         144.5135  141.2913  157.7333 F       1  UNL1       -0.2042
     17 C         144.0982  139.9008  159.8884 C.ar    1  UNL1        0.0297
     18 C         143.7270  139.8346  161.3402 C.ar    1  UNL1        0.0039
     19 C         142.7131  140.3686  171.0835 C.3     1  UNL1        0.0249
     20 C         141.5641  141.3210  170.9331 C.3     1  UNL1        0.1089
     21 C         140.4151  142.2734  170.7826 C.3     1  UNL1        0.0249
     22 N         140.8500  140.6377  172.0615 N.3     1  UNL1       -0.3164
     23 H         139.9515  141.0935  172.2209 H       1  UNL1        0.1192
     24 H         141.4163  140.6972  172.9078 H       1  UNL1        0.1192
     25 N         141.5433  138.8047  163.4916 N.pl3   1  UNL1       -0.2980
     26 H         141.9436  137.9089  163.5734 H       1  UNL1        0.1536
     27 C         140.3014  138.9992  162.6732 C.ar    1  UNL1        0.0518
     28 C         140.0919  138.1941  161.4251 C.ar    1  UNL1        0.0171
     29 C         138.8499  138.3888  160.6066 C.ar    1  UNL1        0.0332
     30 C         137.8175  139.3885  161.0364 C.ar    1  UNL1        0.1675
     31 F         136.5757  139.5831  160.2180 F       1  UNL1       -0.2018
     32 C         138.0270  140.1936  162.2846 C.ar    1  UNL1        0.1686
     33 F         136.9947  141.1934  162.7143 F       1  UNL1       -0.2018
     34 C         139.2690  139.9990  163.1029 C.ar    1  UNL1        0.0466
@<TRIPOS>BOND
     1    19    20    1
     2    20    21    1
     3    20    22    1
     4    20     1    1
     5     1     2    2
     6     1     3   am
     7     3     4    1
     8     4     5    1
     9     5     6    1
    10     6     7   ar
    11     7     8   ar
    12     8     9   ar
    13     9    12    1
    14    12    13   ar
    15    13    14   ar
    16    14    15   ar
    17    15    16    1
    18    15    17   ar
    19    17    18   ar
    20     9    10   ar
    21    10    25    1
    22    25    27    1
    23    27    28   ar
    24    28    29   ar
    25    29    30   ar
    26    30    31    1
    27    30    32   ar
    28    32    33    1
    29    32    34   ar
    30     7    11    1
    31    11     3    1
    32    10     6   ar
    33    34    27   ar
    34    18    12   ar
    35    22    23    1
    36    22    24    1
    37    25    26    1
@<TRIPOS>MOLECULE
*****
 34 37 0 0 0
SMALL
GASTEIGER

@<TRIPOS>ATOM
      1 C         141.2909  139.7981  169.5485 C.2     1  UNL1        0.2383
      2 O         139.9359  139.6031  170.1616 O.2     1  UNL1       -0.2735
      3 N         141.4218  140.0041  168.0685 N.am    1  UNL1       -0.2695
      4 C         142.7767  140.1991  167.4553 C.3     1  UNL1        0.1184
      5 C         142.9076  140.4051  165.9753 C.3     1  UNL1        0.1299
      6 N         141.6835  140.4162  165.1085 N.ar    1  UNL1       -0.3005
      7 C         140.3286  140.2212  165.7216 C.ar    1  UNL1        0.1416
      8 N         139.3095  140.2801  164.6224 N.ar    1  UNL1       -0.2279
      9 C         140.0347  140.5115  163.3300 C.ar    1  UNL1        0.1125
     10 C         141.5019  140.5956  163.6304 C.ar    1  UNL1        0.1318
     11 C         140.1977  140.0151  167.2016 C.3     1  UNL1        0.1578
     12 C         139.4035  140.6368  161.9750 C.ar    1  UNL1        0.0205
     13 C         138.9273  139.4112  161.2532 C.ar    1  UNL1        0.0039
     14 C         138.2961  139.5364  159.8983 C.ar    1  UNL1        0.0297
     15 C         138.1413  140.8874  159.2651 C.ar    1  UNL1        0.1401
     16 F         137.5101  141.0127  157.9101 F       1  UNL1       -0.2042
     17 C         138.6175  142.1130  159.9868 C.ar    1  UNL1        0.0297
     18 C         139.2487  141.9877  161.3418 C.ar    1  UNL1        0.0039
     19 C         142.7290  138.3375  170.0947 C.3     1  UNL1        0.0249
     20 C         142.5150  139.7870  170.4153 C.3     1  UNL1        0.1089
     21 C         142.3010  141.2366  170.7360 C.3     1  UNL1        0.0249
     22 N         143.7391  139.7760  171.2822 N.3     1  UNL1       -0.3164
     23 H         143.8794  140.7028  171.6843 H       1  UNL1        0.1192
     24 H         144.5516  139.5227  170.7200 H       1  UNL1        0.1192
     25 N         142.5956  140.8198  162.6285 N.pl3   1  UNL1       -0.2980
     26 H         143.2497  141.5424  162.7673 H       1  UNL1        0.1536
     27 C         142.6926  139.9431  161.4153 C.ar    1  UNL1        0.0518
     28 C         142.8381  138.4585  161.5724 C.ar    1  UNL1        0.0171
     29 C         142.9352  137.5818  160.3591 C.ar    1  UNL1        0.0332
     30 C         142.8868  138.1898  158.9887 C.ar    1  UNL1        0.1675
     31 F         142.9839  137.3131  157.7755 F       1  UNL1       -0.2018
     32 C         142.7413  139.6744  158.8315 C.ar    1  UNL1        0.1686
     33 F         142.6929  140.2824  157.4611 F       1  UNL1       -0.2018
     34 C         142.6442  140.5510  160.0448 C.ar    1  UNL1        0.0466
@<TRIPOS>BOND
     1    19    20    1
     2    20    21    1
     3    20    22    1
     4    20     1    1
     5     1     2    2
     6     1     3   am
     7     3     4    1
     8     4     5    1
     9     5     6    1
    10     6     7   ar
    11     7     8   ar
    12     8     9   ar
    13     9    12    1
    14    12    13   ar
    15    13    14   ar
    16    14    15   ar
    17    15    16    1
    18    15    17   ar
    19    17    18   ar
    20     9    10   ar
    21    10    25    1
    22    25    27    1
    23    27    28   ar
    24    28    29   ar
    25    29    30   ar
    26    30    31    1
    27    30    32   ar
    28    32    33    1
    29    32    34   ar
    30     7    11    1
    31    11     3    1
    32    10     6   ar
    33    34    27   ar
    34    18    12   ar
    35    22    23    1
    36    22    24    1
    37    25    26    1
