@<TRIPOS>MOLECULE
*****
 16 17 0 0 0
SMALL
GASTEIGER

@<TRIPOS>ATOM
      1 C         140.3509  144.1721  169.9670 C.3     1  UNL1        0.0319
      2 C         141.0923  142.9560  169.4966 C.ar    1  UNL1       -0.0116
      3 C         140.4443  142.0097  168.5297 C.ar    1  UNL1       -0.0076
      4 C         141.1858  140.7936  168.0594 C.ar    1  UNL1       -0.0211
      5 C         142.5752  140.5237  168.5559 C.ar    1  UNL1       -0.0034
      6 C         143.2233  141.4698  169.5227 C.ar    1  UNL1        0.0108
      7 C         142.4818  142.6860  169.9931 C.ar    1  UNL1        0.0537
      8 CL        143.1298  143.6321  170.9600 Cl      1  UNL1       -0.0826
      9 C         140.5379  139.8474  167.0925 C.3     1  UNL1        0.0426
     10 C         139.0975  139.5266  167.3621 C.3     1  UNL1        0.0315
     11 C         138.1795  138.6262  166.5896 C.2     1  UNL1       -0.0289
     12 C         138.4750  137.8244  165.3570 C.2     1  UNL1       -0.0134
     13 C         139.7615  137.7248  164.5921 C.3     1  UNL1        0.0986
     14 N         141.0703  138.4025  164.8711 N.3     1  UNL1       -0.2674
     15 C         142.1803  138.0949  163.9104 C.3     1  UNL1        0.0899
     16 C         141.4157  139.3472  165.9840 C.3     1  UNL1        0.0771
@<TRIPOS>BOND
     1     1     2    1
     2     2     3   ar
     3     3     4   ar
     4     4     9    1
     5     9    10    1
     6    10    11    1
     7    11    12    2
     8    12    13    1
     9    13    14    1
    10    14    15    1
    11    14    16    1
    12     4     5   ar
    13     5     6   ar
    14     6     7   ar
    15     7     8    1
    16     7     2   ar
    17    16     9    1
@<TRIPOS>MOLECULE
*****
 16 17 0 0 0
SMALL
GASTEIGER

@<TRIPOS>ATOM
      1 C         139.5259  140.5507  170.0678 C.3     1  UNL1        0.0319
      2 C         140.2732  140.1315  168.8367 C.ar    1  UNL1       -0.0116
      3 C         139.5454  139.9752  167.5343 C.ar    1  UNL1       -0.0076
      4 C         140.2927  139.5561  166.3032 C.ar    1  UNL1       -0.0211
      5 C         141.7677  139.2932  166.3743 C.ar    1  UNL1       -0.0034
      6 C         142.4956  139.4494  167.6765 C.ar    1  UNL1        0.0108
      7 C         141.7482  139.8686  168.9078 C.ar    1  UNL1        0.0537
      8 CL        142.4760  140.0249  170.2100 Cl      1  UNL1       -0.0826
      9 C         139.5650  139.3998  165.0009 C.3     1  UNL1        0.0426
     10 C         139.6276  138.0356  164.3801 C.3     1  UNL1        0.0315
     11 C         139.0115  137.5631  163.0966 C.2     1  UNL1       -0.0289
     12 C         138.1809  138.3378  162.1170 C.2     1  UNL1       -0.0134
     13 C         137.7610  139.7766  162.1788 C.3     1  UNL1        0.0986
     14 N         138.0682  140.7958  163.2356 N.3     1  UNL1       -0.2674
     15 C         137.4969  142.1636  163.0061 C.3     1  UNL1        0.0899
     16 C         138.8710  140.6281  164.4915 C.3     1  UNL1        0.0771
@<TRIPOS>BOND
     1     1     2    1
     2     2     3   ar
     3     3     4   ar
     4     4     9    1
     5     9    10    1
     6    10    11    1
     7    11    12    2
     8    12    13    1
     9    13    14    1
    10    14    15    1
    11    14    16    1
    12     4     5   ar
    13     5     6   ar
    14     6     7   ar
    15     7     8    1
    16     7     2   ar
    17    16     9    1
@<TRIPOS>MOLECULE
*****
 16 17 0 0 0
SMALL
GASTEIGER

@<TRIPOS>ATOM
      1 C         140.9104  142.8007  170.4149 C.3     1  UNL1        0.0319
      2 C         141.3639  142.6539  168.9927 C.ar    1  UNL1       -0.0116
      3 C         140.3779  142.8023  167.8719 C.ar    1  UNL1       -0.0076
      4 C         140.8314  142.6554  166.4497 C.ar    1  UNL1       -0.0211
      5 C         142.2707  142.3601  166.1482 C.ar    1  UNL1       -0.0034
      6 C         143.2567  142.2117  167.2688 C.ar    1  UNL1        0.0108
      7 C         142.8032  142.3586  168.6911 C.ar    1  UNL1        0.0537
      8 CL        143.7891  142.2102  169.8117 Cl      1  UNL1       -0.0826
      9 C         139.8455  142.8038  165.3290 C.3     1  UNL1        0.0426
     10 C         139.4558  144.2114  164.9872 C.3     1  UNL1        0.0315
     11 C         138.5040  144.6879  163.9302 C.2     1  UNL1       -0.0289
     12 C         137.7069  143.8744  162.9541 C.2     1  UNL1       -0.0134
     13 C         137.6646  142.3836  162.7938 C.3     1  UNL1        0.0986
     14 N         138.4091  141.3381  163.5700 N.3     1  UNL1       -0.2674
     15 C         138.1485  139.9177  163.1644 C.3     1  UNL1        0.0899
     16 C         139.3796  141.5251  164.6983 C.3     1  UNL1        0.0771
@<TRIPOS>BOND
     1     1     2    1
     2     2     3   ar
     3     3     4   ar
     4     4     9    1
     5     9    10    1
     6    10    11    1
     7    11    12    2
     8    12    13    1
     9    13    14    1
    10    14    15    1
    11    14    16    1
    12     4     5   ar
    13     5     6   ar
    14     6     7   ar
    15     7     8    1
    16     7     2   ar
    17    16     9    1
@<TRIPOS>MOLECULE
*****
 16 17 0 0 0
SMALL
GASTEIGER

@<TRIPOS>ATOM
      1 C         143.4928  142.3447  169.0897 C.3     1  UNL1        0.0319
      2 C         142.2384  141.7196  168.5554 C.ar    1  UNL1       -0.0116
      3 C         141.5208  142.3490  167.3981 C.ar    1  UNL1       -0.0076
      4 C         140.2664  141.7238  166.8638 C.ar    1  UNL1       -0.0211
      5 C         139.7294  140.4694  167.4866 C.ar    1  UNL1       -0.0034
      6 C         140.4469  139.8399  168.6438 C.ar    1  UNL1        0.0108
      7 C         141.7014  140.4651  169.1782 C.ar    1  UNL1        0.0537
      8 CL        142.4189  139.8357  170.3353 Cl      1  UNL1       -0.0826
      9 C         139.5488  142.3532  165.7066 C.3     1  UNL1        0.0426
     10 C         139.5234  143.8530  165.6945 C.3     1  UNL1        0.0315
     11 C         138.8944  144.7696  164.6873 C.2     1  UNL1       -0.0289
     12 C         138.1356  144.4127  163.4437 C.2     1  UNL1       -0.0134
     13 C         137.8182  143.0513  162.8999 C.3     1  UNL1        0.0986
     14 N         138.1814  141.7103  163.4655 N.3     1  UNL1       -0.2674
     15 C         137.7123  140.5231  162.6780 C.3     1  UNL1        0.0899
     16 C         138.9516  141.3997  164.7147 C.3     1  UNL1        0.0771
@<TRIPOS>BOND
     1     1     2    1
     2     2     3   ar
     3     3     4   ar
     4     4     9    1
     5     9    10    1
     6    10    11    1
     7    11    12    2
     8    12    13    1
     9    13    14    1
    10    14    15    1
    11    14    16    1
    12     4     5   ar
    13     5     6   ar
    14     6     7   ar
    15     7     8    1
    16     7     2   ar
    17    16     9    1
@<TRIPOS>MOLECULE
*****
 16 17 0 0 0
SMALL
GASTEIGER

@<TRIPOS>ATOM
      1 C         139.2491  140.2159  169.0364 C.3     1  UNL1        0.0319
      2 C         139.6228  139.9120  167.6159 C.ar    1  UNL1       -0.0116
      3 C         140.9013  140.4503  167.0451 C.ar    1  UNL1       -0.0076
      4 C         141.2751  140.1463  165.6246 C.ar    1  UNL1       -0.0211
      5 C         140.3703  139.3040  164.7749 C.ar    1  UNL1       -0.0034
      6 C         139.0918  138.7657  165.3456 C.ar    1  UNL1        0.0108
      7 C         138.7181  139.0697  166.7662 C.ar    1  UNL1        0.0537
      8 CL        137.4397  138.5315  167.3369 Cl      1  UNL1       -0.0826
      9 C         142.5535  140.6845  165.0538 C.3     1  UNL1        0.0426
     10 C         143.6332  139.6726  164.8078 C.3     1  UNL1        0.0315
     11 C         145.0093  139.8897  164.2516 C.2     1  UNL1       -0.0289
     12 C         145.6455  141.1722  163.8042 C.2     1  UNL1       -0.0134
     13 C         145.0629  142.5545  163.8024 C.3     1  UNL1        0.0986
     14 N         143.7001  142.9955  164.2475 N.3     1  UNL1       -0.2674
     15 C         143.4166  144.4628  164.1187 C.3     1  UNL1        0.0899
     16 C         142.5833  142.1632  164.8045 C.3     1  UNL1        0.0771
@<TRIPOS>BOND
     1     1     2    1
     2     2     3   ar
     3     3     4   ar
     4     4     9    1
     5     9    10    1
     6    10    11    1
     7    11    12    2
     8    12    13    1
     9    13    14    1
    10    14    15    1
    11    14    16    1
    12     4     5   ar
    13     5     6   ar
    14     6     7   ar
    15     7     8    1
    16     7     2   ar
    17    16     9    1
@<TRIPOS>MOLECULE
*****
 16 17 0 0 0
SMALL
GASTEIGER

@<TRIPOS>ATOM
      1 C         142.9151  142.8365  170.6158 C.3     1  UNL1        0.0319
      2 C         142.2582  142.7229  169.2721 C.ar    1  UNL1       -0.0116
      3 C         143.0573  142.2825  168.0814 C.ar    1  UNL1       -0.0076
      4 C         142.4004  142.1689  166.7377 C.ar    1  UNL1       -0.0211
      5 C         140.9445  142.4956  166.5846 C.ar    1  UNL1       -0.0034
      6 C         140.1454  142.9360  167.7752 C.ar    1  UNL1        0.0108
      7 C         140.8023  143.0496  169.1190 C.ar    1  UNL1        0.0537
      8 CL        140.0033  143.4900  170.3095 Cl      1  UNL1       -0.0826
      9 C         143.1995  141.7285  165.5471 C.3     1  UNL1        0.0426
     10 C         144.3148  142.6441  165.1371 C.3     1  UNL1        0.0315
     11 C         145.2836  142.4880  164.0025 C.2     1  UNL1       -0.0289
     12 C         145.3764  141.3781  162.9980 C.2     1  UNL1       -0.0134
     13 C         144.5234  140.1499  162.8796 C.3     1  UNL1        0.0986
     14 N         143.3668  139.7284  163.7367 N.3     1  UNL1       -0.2674
     15 C         142.7130  138.4332  163.3565 C.3     1  UNL1        0.0899
     16 C         142.7777  140.4311  164.9239 C.3     1  UNL1        0.0771
@<TRIPOS>BOND
     1     1     2    1
     2     2     3   ar
     3     3     4   ar
     4     4     9    1
     5     9    10    1
     6    10    11    1
     7    11    12    2
     8    12    13    1
     9    13    14    1
    10    14    15    1
    11    14    16    1
    12     4     5   ar
    13     5     6   ar
    14     6     7   ar
    15     7     8    1
    16     7     2   ar
    17    16     9    1
@<TRIPOS>MOLECULE
*****
 16 17 0 0 0
SMALL
GASTEIGER

@<TRIPOS>ATOM
      1 C         142.4369  141.5381  170.7255 C.3     1  UNL1        0.0319
      2 C         142.4943  141.1226  169.2854 C.ar    1  UNL1       -0.0116
      3 C         142.4569  142.1607  168.2031 C.ar    1  UNL1       -0.0076
      4 C         142.5143  141.7451  166.7630 C.ar    1  UNL1       -0.0211
      5 C         142.6089  140.2916  166.4050 C.ar    1  UNL1       -0.0034
      6 C         142.6462  139.2535  167.4871 C.ar    1  UNL1        0.0108
      7 C         142.5889  139.6690  168.9273 C.ar    1  UNL1        0.0537
      8 CL        142.6262  138.6310  170.0094 Cl      1  UNL1       -0.0826
      9 C         142.4769  142.7832  165.6808 C.3     1  UNL1        0.0426
     10 C         143.8022  143.1397  165.0751 C.3     1  UNL1        0.0315
     11 C         144.0971  144.1286  163.9864 C.2     1  UNL1       -0.0289
     12 C         143.1398  145.0049  163.2346 C.2     1  UNL1       -0.0134
     13 C         141.6511  145.1091  163.3857 C.3     1  UNL1        0.0986
     14 N         140.7520  144.3625  164.3260 N.3     1  UNL1       -0.2674
     15 C         139.2923  144.6950  164.2325 C.3     1  UNL1        0.0899
     16 C         141.1196  143.3273  165.3474 C.3     1  UNL1        0.0771
@<TRIPOS>BOND
     1     1     2    1
     2     2     3   ar
     3     3     4   ar
     4     4     9    1
     5     9    10    1
     6    10    11    1
     7    11    12    2
     8    12    13    1
     9    13    14    1
    10    14    15    1
    11    14    16    1
    12     4     5   ar
    13     5     6   ar
    14     6     7   ar
    15     7     8    1
    16     7     2   ar
    17    16     9    1
@<TRIPOS>MOLECULE
*****
 16 17 0 0 0
SMALL
GASTEIGER

@<TRIPOS>ATOM
      1 C         142.3798  142.6300  169.0564 C.3     1  UNL1        0.0319
      2 C         141.2061  141.7138  168.8754 C.ar    1  UNL1       -0.0116
      3 C         140.8450  141.2190  167.5061 C.ar    1  UNL1       -0.0076
      4 C         139.6713  140.3027  167.3251 C.ar    1  UNL1       -0.0211
      5 C         138.8586  139.8813  168.5133 C.ar    1  UNL1       -0.0034
      6 C         139.2195  140.3761  169.8825 C.ar    1  UNL1        0.0108
      7 C         140.3933  141.2924  170.0636 C.ar    1  UNL1        0.0537
      8 CL        140.7543  141.7872  171.4328 Cl      1  UNL1       -0.0826
      9 C         139.3103  139.8079  165.9558 C.3     1  UNL1        0.0426
     10 C         139.7425  138.4077  165.6350 C.3     1  UNL1        0.0315
     11 C         139.5360  137.6324  164.3675 C.2     1  UNL1       -0.0289
     12 C         138.8463  138.0658  163.1081 C.2     1  UNL1       -0.0134
     13 C         138.1926  139.3814  162.8048 C.3     1  UNL1        0.0986
     14 N         138.0673  140.5886  163.6862 N.3     1  UNL1       -0.2674
     15 C         137.3498  141.7611  163.0860 C.3     1  UNL1        0.0899
     16 C         138.5648  140.7783  165.0886 C.3     1  UNL1        0.0771
@<TRIPOS>BOND
     1     1     2    1
     2     2     3   ar
     3     3     4   ar
     4     4     9    1
     5     9    10    1
     6    10    11    1
     7    11    12    2
     8    12    13    1
     9    13    14    1
    10    14    15    1
    11    14    16    1
    12     4     5   ar
    13     5     6   ar
    14     6     7   ar
    15     7     8    1
    16     7     2   ar
    17    16     9    1
@<TRIPOS>MOLECULE
*****
 16 17 0 0 0
SMALL
GASTEIGER

@<TRIPOS>ATOM
      1 C         143.3563  138.3956  166.9210 C.3     1  UNL1        0.0319
      2 C         142.6211  139.6417  167.3168 C.ar    1  UNL1       -0.0116
      3 C         142.2715  140.6676  166.2797 C.ar    1  UNL1       -0.0076
      4 C         141.5364  141.9137  166.6754 C.ar    1  UNL1       -0.0211
      5 C         141.1507  142.1340  168.1081 C.ar    1  UNL1       -0.0034
      6 C         141.5003  141.1082  169.1452 C.ar    1  UNL1        0.0108
      7 C         142.2355  139.8620  168.7495 C.ar    1  UNL1        0.0537
      8 CL        142.5850  138.8362  169.7865 Cl      1  UNL1       -0.0826
      9 C         141.1868  142.9397  165.6384 C.3     1  UNL1        0.0426
     10 C         139.7579  143.3960  165.6303 C.3     1  UNL1        0.0315
     11 C         139.1016  144.3990  164.7283 C.2     1  UNL1       -0.0289
     12 C         139.7121  145.1932  163.6120 C.2     1  UNL1       -0.0134
     13 C         141.1296  145.1809  163.1217 C.3     1  UNL1        0.0986
     14 N         142.2868  144.3710  163.6268 N.3     1  UNL1       -0.2674
     15 C         143.5910  144.5872  162.9181 C.3     1  UNL1        0.0899
     16 C         142.3122  143.3736  164.7468 C.3     1  UNL1        0.0771
@<TRIPOS>BOND
     1     1     2    1
     2     2     3   ar
     3     3     4   ar
     4     4     9    1
     5     9    10    1
     6    10    11    1
     7    11    12    2
     8    12    13    1
     9    13    14    1
    10    14    15    1
    11    14    16    1
    12     4     5   ar
    13     5     6   ar
    14     6     7   ar
    15     7     8    1
    16     7     2   ar
    17    16     9    1
