@<TRIPOS>MOLECULE
*****
 27 29 0 0 0
SMALL
GASTEIGER

@<TRIPOS>ATOM
      1 N         140.4612  141.7544  164.0536 N.pl3   1  UNL1       -0.3038
      2 C         140.2410  141.3431  165.4792 C.ar    1  UNL1        0.0490
      3 C         139.5531  140.0464  165.7880 C.ar    1  UNL1        0.0153
      4 C         139.3329  139.6352  167.2137 C.ar    1  UNL1        0.0124
      5 C         139.8005  140.5206  168.3305 C.ar    1  UNL1        0.0791
      6 C         140.4884  141.8174  168.0217 C.ar    1  UNL1        0.0685
      7 CL        140.9560  142.7028  169.1385 Cl      1  UNL1       -0.0815
      8 C         140.7086  142.2286  166.5961 C.ar    1  UNL1        0.0266
      9 C         139.5802  140.1094  169.7561 C.1     1  UNL1        0.1013
     10 N         139.3600  139.6981  171.1817 N.1     1  UNL1       -0.1908
     11 C         139.5302  146.3811  161.6857 C.3     1  UNL1        0.0897
     12 N         139.3292  145.0858  162.4149 N.3     1  UNL1       -0.2700
     13 C         138.0180  144.5403  162.8979 C.3     1  UNL1        0.0739
     14 C         138.2826  143.2258  163.5707 C.3     1  UNL1        0.0385
     15 C         139.7571  142.9592  163.5033 C.3     1  UNL1        0.0904
     16 C         140.4040  144.1087  162.7890 C.3     1  UNL1        0.0921
     17 C         141.3855  140.9609  163.1784 C.3     1  UNL1        0.1176
     18 C         142.8707  141.0898  163.3446 C.ar    1  UNL1        0.0015
     19 C         143.5891  142.2762  162.7734 C.ar    1  UNL1       -0.0027
     20 C         145.0743  142.4050  162.9396 C.ar    1  UNL1       -0.0003
     21 C         145.8410  141.3475  163.6770 C.ar    1  UNL1       -0.0001
     22 C         145.1226  140.1610  164.2482 C.ar    1  UNL1        0.0036
     23 C         143.6374  140.0322  164.0820 C.ar    1  UNL1        0.0691
     24 C         142.9189  138.8458  164.6531 C.3     1  UNL1        0.4183
     25 F         142.2005  137.6594  165.2243 F       1  UNL1       -0.1659
     26 F         143.0007  138.1562  163.3236 F       1  UNL1       -0.1659
     27 F         142.8372  139.5354  165.9827 F       1  UNL1       -0.1659
@<TRIPOS>BOND
     1    11    12    1
     2    12    13    1
     3    13    14    1
     4    14    15    1
     5    15     1    1
     6     1    17    1
     7    17    18    1
     8    18    19   ar
     9    19    20   ar
    10    20    21   ar
    11    21    22   ar
    12    22    23   ar
    13    23    24    1
    14    24    25    1
    15    24    26    1
    16    24    27    1
    17     1     2    1
    18     2     3   ar
    19     3     4   ar
    20     4     5   ar
    21     5     9    1
    22     9    10    3
    23     5     6   ar
    24     6     7    1
    25     6     8   ar
    26    15    16    1
    27    16    12    1
    28    23    18   ar
    29     8     2   ar
@<TRIPOS>MOLECULE
*****
 27 29 0 0 0
SMALL
GASTEIGER

@<TRIPOS>ATOM
      1 N         142.2710  139.4880  165.4685 N.pl3   1  UNL1       -0.3038
      2 C         141.9053  140.0333  166.8172 C.ar    1  UNL1        0.0490
      3 C         140.8253  141.0669  166.9406 C.ar    1  UNL1        0.0153
      4 C         140.4597  141.6123  168.2892 C.ar    1  UNL1        0.0124
      5 C         141.1740  141.1241  169.5145 C.ar    1  UNL1        0.0791
      6 C         142.2541  140.0905  169.3912 C.ar    1  UNL1        0.0685
      7 CL        142.9684  139.6022  170.6164 Cl      1  UNL1       -0.0815
      8 C         142.6197  139.5451  168.0425 C.ar    1  UNL1        0.0266
      9 C         140.8084  141.6695  170.8631 C.1     1  UNL1        0.1013
     10 N         140.4427  142.2149  172.2118 N.1     1  UNL1       -0.1908
     11 C         144.4067  143.1153  162.2808 C.3     1  UNL1        0.0897
     12 N         144.2259  141.8949  163.1339 N.3     1  UNL1       -0.2700
     13 C         145.2579  140.8365  163.3888 C.3     1  UNL1        0.0739
     14 C         144.6511  139.8060  164.2944 C.3     1  UNL1        0.0385
     15 C         143.2442  140.2276  164.5991 C.3     1  UNL1        0.0904
     16 C         142.9814  141.5185  163.8820 C.3     1  UNL1        0.0921
     17 C         141.6634  138.2030  164.9893 C.3     1  UNL1        0.1176
     18 C         140.7839  138.1965  163.7742 C.ar    1  UNL1        0.0015
     19 C         141.3925  138.0772  162.4085 C.ar    1  UNL1       -0.0027
     20 C         140.5130  138.0707  161.1934 C.ar    1  UNL1       -0.0003
     21 C         139.0249  138.1836  161.3441 C.ar    1  UNL1       -0.0001
     22 C         138.4162  138.3030  162.7099 C.ar    1  UNL1        0.0036
     23 C         139.2957  138.3094  163.9250 C.ar    1  UNL1        0.0691
     24 C         138.6871  138.4288  165.2907 C.3     1  UNL1        0.4183
     25 F         138.0786  138.5481  166.6565 F       1  UNL1       -0.1659
     26 F         138.7780  136.9413  165.4612 F       1  UNL1       -0.1659
     27 F         138.5963  139.9163  165.1203 F       1  UNL1       -0.1659
@<TRIPOS>BOND
     1    11    12    1
     2    12    13    1
     3    13    14    1
     4    14    15    1
     5    15     1    1
     6     1    17    1
     7    17    18    1
     8    18    19   ar
     9    19    20   ar
    10    20    21   ar
    11    21    22   ar
    12    22    23   ar
    13    23    24    1
    14    24    25    1
    15    24    26    1
    16    24    27    1
    17     1     2    1
    18     2     3   ar
    19     3     4   ar
    20     4     5   ar
    21     5     9    1
    22     9    10    3
    23     5     6   ar
    24     6     7    1
    25     6     8   ar
    26    15    16    1
    27    16    12    1
    28    23    18   ar
    29     8     2   ar
@<TRIPOS>MOLECULE
*****
 27 29 0 0 0
SMALL
GASTEIGER

@<TRIPOS>ATOM
      1 N         140.8110  140.6644  166.0989 N.pl3   1  UNL1       -0.3038
      2 C         140.5693  141.8447  165.2053 C.ar    1  UNL1        0.0490
      3 C         141.7113  142.4646  164.4562 C.ar    1  UNL1        0.0153
      4 C         141.4696  143.6449  163.5626 C.ar    1  UNL1        0.0124
      5 C         140.0857  144.2053  163.4182 C.ar    1  UNL1        0.0791
      6 C         138.9435  143.5853  164.1674 C.ar    1  UNL1        0.0685
      7 CL        137.5597  144.1457  164.0231 Cl      1  UNL1       -0.0815
      8 C         139.1853  142.4050  165.0610 C.ar    1  UNL1        0.0266
      9 C         139.8439  145.3856  162.5247 C.1     1  UNL1        0.1013
     10 N         139.6022  146.5659  161.6311 N.1     1  UNL1       -0.1908
     11 C         141.6778  142.0197  171.1280 C.3     1  UNL1        0.0897
     12 N         141.0590  141.4282  169.8964 N.3     1  UNL1       -0.2700
     13 C         139.7990  140.6158  169.8458 C.3     1  UNL1        0.0739
     14 C         139.5528  140.2307  168.4170 C.3     1  UNL1        0.0385
     15 C         140.6606  140.8053  167.5847 C.3     1  UNL1        0.0904
     16 C         141.5914  141.5453  168.4989 C.3     1  UNL1        0.0921
     17 C         141.2032  139.3432  165.5067 C.3     1  UNL1        0.1176
     18 C         140.6001  138.8945  164.2087 C.ar    1  UNL1        0.0015
     19 C         141.3794  139.0275  162.9339 C.ar    1  UNL1       -0.0027
     20 C         140.7762  138.5787  161.6359 C.ar    1  UNL1       -0.0003
     21 C         139.3939  137.9970  161.6126 C.ar    1  UNL1       -0.0001
     22 C         138.6145  137.8640  162.8874 C.ar    1  UNL1        0.0036
     23 C         139.2177  138.3127  164.1855 C.ar    1  UNL1        0.0691
     24 C         138.4384  138.1797  165.4602 C.3     1  UNL1        0.4183
     25 F         137.6592  138.0468  166.7350 F       1  UNL1       -0.1659
     26 F         137.8856  139.5606  165.2663 F       1  UNL1       -0.1659
     27 F         138.9912  136.7989  165.6541 F       1  UNL1       -0.1659
@<TRIPOS>BOND
     1    11    12    1
     2    12    13    1
     3    13    14    1
     4    14    15    1
     5    15     1    1
     6     1    17    1
     7    17    18    1
     8    18    19   ar
     9    19    20   ar
    10    20    21   ar
    11    21    22   ar
    12    22    23   ar
    13    23    24    1
    14    24    25    1
    15    24    26    1
    16    24    27    1
    17     1     2    1
    18     2     3   ar
    19     3     4   ar
    20     4     5   ar
    21     5     9    1
    22     9    10    3
    23     5     6   ar
    24     6     7    1
    25     6     8   ar
    26    15    16    1
    27    16    12    1
    28    23    18   ar
    29     8     2   ar
@<TRIPOS>MOLECULE
*****
 27 29 0 0 0
SMALL
GASTEIGER

@<TRIPOS>ATOM
      1 N         141.3355  141.9749  166.3324 N.pl3   1  UNL1       -0.3038
      2 C         140.9388  142.9365  165.2517 C.ar    1  UNL1        0.0490
      3 C         141.9875  143.7374  164.5384 C.ar    1  UNL1        0.0153
      4 C         141.5909  144.6990  163.4577 C.ar    1  UNL1        0.0124
      5 C         140.1455  144.8598  163.0902 C.ar    1  UNL1        0.0791
      6 C         139.0967  144.0589  163.8035 C.ar    1  UNL1        0.0685
      7 CL        137.6514  144.2197  163.4360 Cl      1  UNL1       -0.0815
      8 C         139.4934  143.0973  164.8842 C.ar    1  UNL1        0.0266
      9 C         139.7489  145.8214  162.0095 C.1     1  UNL1        0.1013
     10 N         139.3522  146.7831  160.9288 N.1     1  UNL1       -0.1908
     11 C         143.6360  143.2975  170.8973 C.3     1  UNL1        0.0897
     12 N         142.6039  143.0748  169.8319 N.3     1  UNL1       -0.2700
     13 C         141.1384  143.3730  169.9479 C.3     1  UNL1        0.0739
     14 C         140.4849  142.9973  168.6510 C.3     1  UNL1        0.0385
     15 C         141.5465  142.4669  167.7337 C.3     1  UNL1        0.0904
     16 C         142.8561  142.5148  168.4634 C.3     1  UNL1        0.0921
     17 C         141.5211  140.5214  166.0119 C.3     1  UNL1        0.1176
     18 C         140.3464  139.5893  166.0484 C.ar    1  UNL1        0.0015
     19 C         139.2390  139.8167  167.0343 C.ar    1  UNL1       -0.0027
     20 C         138.0643  138.8846  167.0709 C.ar    1  UNL1       -0.0003
     21 C         137.9970  137.7252  166.1216 C.ar    1  UNL1       -0.0001
     22 C         139.1044  137.4978  165.1357 C.ar    1  UNL1        0.0036
     23 C         140.2791  138.4299  165.0991 C.ar    1  UNL1        0.0691
     24 C         141.3865  138.2025  164.1132 C.3     1  UNL1        0.4183
     25 F         142.4938  137.9752  163.1273 F       1  UNL1       -0.1659
     26 F         142.1435  137.4191  165.1442 F       1  UNL1       -0.1659
     27 F         140.6294  138.9860  163.0822 F       1  UNL1       -0.1659
@<TRIPOS>BOND
     1    11    12    1
     2    12    13    1
     3    13    14    1
     4    14    15    1
     5    15     1    1
     6     1    17    1
     7    17    18    1
     8    18    19   ar
     9    19    20   ar
    10    20    21   ar
    11    21    22   ar
    12    22    23   ar
    13    23    24    1
    14    24    25    1
    15    24    26    1
    16    24    27    1
    17     1     2    1
    18     2     3   ar
    19     3     4   ar
    20     4     5   ar
    21     5     9    1
    22     9    10    3
    23     5     6   ar
    24     6     7    1
    25     6     8   ar
    26    15    16    1
    27    16    12    1
    28    23    18   ar
    29     8     2   ar
@<TRIPOS>MOLECULE
*****
 27 29 0 0 0
SMALL
GASTEIGER

@<TRIPOS>ATOM
      1 N         141.4958  141.5241  166.2847 N.pl3   1  UNL1       -0.3038
      2 C         141.0833  142.5574  165.2787 C.ar    1  UNL1        0.0490
      3 C         142.1161  143.4411  164.6445 C.ar    1  UNL1        0.0153
      4 C         141.7035  144.4744  163.6385 C.ar    1  UNL1        0.0124
      5 C         140.2581  144.6240  163.2667 C.ar    1  UNL1        0.0791
      6 C         139.2252  143.7403  163.9009 C.ar    1  UNL1        0.0685
      7 CL        137.7797  143.8900  163.5291 Cl      1  UNL1       -0.0815
      8 C         139.6377  142.7070  164.9069 C.ar    1  UNL1        0.0266
      9 C         139.8455  145.6574  162.2607 C.1     1  UNL1        0.1013
     10 N         139.4330  146.6907  161.2547 N.1     1  UNL1       -0.1908
     11 C         139.5602  142.9259  170.9931 C.3     1  UNL1        0.0897
     12 N         139.9321  142.1141  169.7879 N.3     1  UNL1       -0.2700
     13 C         139.6369  140.6581  169.5802 C.3     1  UNL1        0.0739
     14 C         140.1868  140.2599  168.2426 C.3     1  UNL1        0.0385
     15 C         140.8217  141.4698  167.6237 C.3     1  UNL1        0.0904
     16 C         140.6643  142.6157  168.5787 C.3     1  UNL1        0.0921
     17 C         142.5824  140.5451  165.9518 C.3     1  UNL1        0.1176
     18 C         142.4109  139.5963  164.8026 C.ar    1  UNL1        0.0015
     19 C         141.1574  138.7811  164.6838 C.ar    1  UNL1       -0.0027
     20 C         140.9859  137.8324  163.5346 C.ar    1  UNL1       -0.0003
     21 C         142.0679  137.6989  162.5044 C.ar    1  UNL1       -0.0001
     22 C         143.3215  138.5142  162.6232 C.ar    1  UNL1        0.0036
     23 C         143.4930  139.4629  163.7724 C.ar    1  UNL1        0.0691
     24 C         144.7464  140.2781  163.8913 C.3     1  UNL1        0.4183
     25 F         145.9999  141.0933  164.0102 F       1  UNL1       -0.1659
     26 F         144.1078  141.3764  163.0940 F       1  UNL1       -0.1659
     27 F         145.3851  139.1798  164.6886 F       1  UNL1       -0.1659
@<TRIPOS>BOND
     1    11    12    1
     2    12    13    1
     3    13    14    1
     4    14    15    1
     5    15     1    1
     6     1    17    1
     7    17    18    1
     8    18    19   ar
     9    19    20   ar
    10    20    21   ar
    11    21    22   ar
    12    22    23   ar
    13    23    24    1
    14    24    25    1
    15    24    26    1
    16    24    27    1
    17     1     2    1
    18     2     3   ar
    19     3     4   ar
    20     4     5   ar
    21     5     9    1
    22     9    10    3
    23     5     6   ar
    24     6     7    1
    25     6     8   ar
    26    15    16    1
    27    16    12    1
    28    23    18   ar
    29     8     2   ar
@<TRIPOS>MOLECULE
*****
 27 29 0 0 0
SMALL
GASTEIGER

@<TRIPOS>ATOM
      1 N         140.4976  141.9894  166.7158 N.pl3   1  UNL1       -0.3038
      2 C         140.2877  142.9595  165.5911 C.ar    1  UNL1        0.0490
      3 C         138.9742  143.6694  165.4483 C.ar    1  UNL1        0.0153
      4 C         138.7643  144.6395  164.3236 C.ar    1  UNL1        0.0124
      5 C         139.8679  144.8996  163.3417 C.ar    1  UNL1        0.0791
      6 C         141.1816  144.1896  163.4845 C.ar    1  UNL1        0.0685
      7 CL        142.2853  144.4497  162.5026 Cl      1  UNL1       -0.0815
      8 C         141.3915  143.2196  164.6092 C.ar    1  UNL1        0.0266
      9 C         139.6580  145.8696  162.2170 C.1     1  UNL1        0.1013
     10 N         139.4481  146.8397  161.0924 N.1     1  UNL1       -0.1908
     11 C         144.5182  142.7279  170.0580 C.3     1  UNL1        0.0897
     12 N         143.1452  142.7360  169.4542 N.3     1  UNL1       -0.2700
     13 C         141.9094  143.3099  170.0817 C.3     1  UNL1        0.0739
     14 C         140.7672  143.1001  169.1321 C.3     1  UNL1        0.0385
     15 C         141.2971  142.3965  167.9180 C.3     1  UNL1        0.0904
     16 C         142.7667  142.1714  168.1170 C.3     1  UNL1        0.0921
     17 C         139.9081  140.6123  166.6384 C.3     1  UNL1        0.1176
     18 C         140.4355  139.6258  165.6391 C.ar    1  UNL1        0.0015
     19 C         141.6787  138.8431  165.9421 C.ar    1  UNL1       -0.0027
     20 C         142.2061  137.8566  164.9428 C.ar    1  UNL1       -0.0003
     21 C         141.4904  137.6527  163.6405 C.ar    1  UNL1       -0.0001
     22 C         140.2471  138.4355  163.3374 C.ar    1  UNL1        0.0036
     23 C         139.7197  139.4220  164.3367 C.ar    1  UNL1        0.0691
     24 C         138.4766  140.2047  164.0336 C.3     1  UNL1        0.4183
     25 F         137.2334  140.9874  163.7306 F       1  UNL1       -0.1659
     26 F         137.6985  139.3330  164.9741 F       1  UNL1       -0.1659
     27 F         139.2547  141.0764  163.0931 F       1  UNL1       -0.1659
@<TRIPOS>BOND
     1    11    12    1
     2    12    13    1
     3    13    14    1
     4    14    15    1
     5    15     1    1
     6     1    17    1
     7    17    18    1
     8    18    19   ar
     9    19    20   ar
    10    20    21   ar
    11    21    22   ar
    12    22    23   ar
    13    23    24    1
    14    24    25    1
    15    24    26    1
    16    24    27    1
    17     1     2    1
    18     2     3   ar
    19     3     4   ar
    20     4     5   ar
    21     5     9    1
    22     9    10    3
    23     5     6   ar
    24     6     7    1
    25     6     8   ar
    26    15    16    1
    27    16    12    1
    28    23    18   ar
    29     8     2   ar
@<TRIPOS>MOLECULE
*****
 27 29 0 0 0
SMALL
GASTEIGER

@<TRIPOS>ATOM
      1 N         143.2155  140.6699  165.2290 N.pl3   1  UNL1       -0.3038
      2 C         142.6781  140.9345  166.6043 C.ar    1  UNL1        0.0490
      3 C         142.0988  142.2773  166.9376 C.ar    1  UNL1        0.0153
      4 C         141.5615  142.5418  168.3129 C.ar    1  UNL1        0.0124
      5 C         141.6034  141.4636  169.3547 C.ar    1  UNL1        0.0791
      6 C         142.1828  140.1206  169.0214 C.ar    1  UNL1        0.0685
      7 CL        142.2247  139.0424  170.0633 Cl      1  UNL1       -0.0815
      8 C         142.7201  139.8561  167.6462 C.ar    1  UNL1        0.0266
      9 C         141.0661  141.7281  170.7300 C.1     1  UNL1        0.1013
     10 N         140.5288  141.9927  172.1052 N.1     1  UNL1       -0.1908
     11 C         142.2400  144.1706  161.3983 C.3     1  UNL1        0.0897
     12 N         142.9245  143.4090  162.4943 N.3     1  UNL1       -0.2700
     13 C         144.3058  143.6685  163.0187 C.3     1  UNL1        0.0739
     14 C         144.5829  142.6739  164.1069 C.3     1  UNL1        0.0385
     15 C         143.3729  141.7999  164.2551 C.3     1  UNL1        0.0904
     16 C         142.3480  142.2542  163.2585 C.3     1  UNL1        0.0921
     17 C         143.5954  139.2755  164.8277 C.3     1  UNL1        0.1176
     18 C         143.2448  138.7666  163.4609 C.ar    1  UNL1        0.0015
     19 C         144.2486  138.8495  162.3494 C.ar    1  UNL1       -0.0027
     20 C         143.8981  138.3406  160.9827 C.ar    1  UNL1       -0.0003
     21 C         142.5436  137.7488  160.7273 C.ar    1  UNL1       -0.0001
     22 C         141.5397  137.6658  161.8388 C.ar    1  UNL1        0.0036
     23 C         141.8903  138.1747  163.2056 C.ar    1  UNL1        0.0691
     24 C         140.8865  138.0918  164.3171 C.3     1  UNL1        0.4183
     25 F         139.8826  138.0088  165.4285 F       1  UNL1       -0.1659
     26 F         141.3590  136.7054  164.6404 F       1  UNL1       -0.1659
     27 F         140.4139  139.4781  163.9937 F       1  UNL1       -0.1659
@<TRIPOS>BOND
     1    11    12    1
     2    12    13    1
     3    13    14    1
     4    14    15    1
     5    15     1    1
     6     1    17    1
     7    17    18    1
     8    18    19   ar
     9    19    20   ar
    10    20    21   ar
    11    21    22   ar
    12    22    23   ar
    13    23    24    1
    14    24    25    1
    15    24    26    1
    16    24    27    1
    17     1     2    1
    18     2     3   ar
    19     3     4   ar
    20     4     5   ar
    21     5     9    1
    22     9    10    3
    23     5     6   ar
    24     6     7    1
    25     6     8   ar
    26    15    16    1
    27    16    12    1
    28    23    18   ar
    29     8     2   ar
@<TRIPOS>MOLECULE
*****
 27 29 0 0 0
SMALL
GASTEIGER

@<TRIPOS>ATOM
      1 N         140.6218  142.7489  164.4240 N.pl3   1  UNL1       -0.3038
      2 C         140.3796  142.1164  165.7624 C.ar    1  UNL1        0.0490
      3 C         140.0011  140.6676  165.8497 C.ar    1  UNL1        0.0153
      4 C         139.7589  140.0350  167.1881 C.ar    1  UNL1        0.0124
      5 C         139.8951  140.8513  168.4391 C.ar    1  UNL1        0.0791
      6 C         140.2735  142.3002  168.3518 C.ar    1  UNL1        0.0685
      7 CL        140.4097  143.1164  169.6028 Cl      1  UNL1       -0.0815
      8 C         140.5158  142.9327  167.0135 C.ar    1  UNL1        0.0266
      9 C         139.6528  140.2187  169.7775 C.1     1  UNL1        0.1013
     10 N         139.4105  139.5862  171.1158 N.1     1  UNL1       -0.1908
     11 C         138.2528  140.6221  160.2116 C.3     1  UNL1        0.0897
     12 N         138.5729  141.5319  161.3603 N.3     1  UNL1       -0.2700
     13 C         137.7962  142.7505  161.7629 C.3     1  UNL1        0.0739
     14 C         138.4692  143.3547  162.9596 C.3     1  UNL1        0.0385
     15 C         139.6618  142.5095  163.2965 C.3     1  UNL1        0.0904
     16 C         139.7259  141.3830  162.3082 C.3     1  UNL1        0.0921
     17 C         141.8240  143.6208  164.2131 C.3     1  UNL1        0.1176
     18 C         143.0832  143.0372  163.6442 C.ar    1  UNL1        0.0015
     19 C         143.2542  142.9272  162.1581 C.ar    1  UNL1       -0.0027
     20 C         144.5134  142.3436  161.5891 C.ar    1  UNL1       -0.0003
     21 C         145.6018  141.8700  162.5063 C.ar    1  UNL1       -0.0001
     22 C         145.4309  141.9801  163.9925 C.ar    1  UNL1        0.0036
     23 C         144.1716  142.5637  164.5615 C.ar    1  UNL1        0.0691
     24 C         144.0007  142.6737  166.0476 C.3     1  UNL1        0.4183
     25 F         143.8297  142.7838  167.5337 F       1  UNL1       -0.1659
     26 F         144.6561  144.0227  166.0231 F       1  UNL1       -0.1659
     27 F         143.3452  141.3248  166.0721 F       1  UNL1       -0.1659
@<TRIPOS>BOND
     1    11    12    1
     2    12    13    1
     3    13    14    1
     4    14    15    1
     5    15     1    1
     6     1    17    1
     7    17    18    1
     8    18    19   ar
     9    19    20   ar
    10    20    21   ar
    11    21    22   ar
    12    22    23   ar
    13    23    24    1
    14    24    25    1
    15    24    26    1
    16    24    27    1
    17     1     2    1
    18     2     3   ar
    19     3     4   ar
    20     4     5   ar
    21     5     9    1
    22     9    10    3
    23     5     6   ar
    24     6     7    1
    25     6     8   ar
    26    15    16    1
    27    16    12    1
    28    23    18   ar
    29     8     2   ar
@<TRIPOS>MOLECULE
*****
 27 29 0 0 0
SMALL
GASTEIGER

@<TRIPOS>ATOM
      1 N         140.7012  140.3861  166.3468 N.pl3   1  UNL1       -0.3038
      2 C         140.4002  141.5203  165.4125 C.ar    1  UNL1        0.0490
      3 C         141.3805  142.6450  165.2579 C.ar    1  UNL1        0.0153
      4 C         141.0795  143.7792  164.3236 C.ar    1  UNL1        0.0124
      5 C         139.7981  143.7888  163.5439 C.ar    1  UNL1        0.0791
      6 C         138.8177  142.6640  163.6985 C.ar    1  UNL1        0.0685
      7 CL        137.5363  142.6736  162.9188 Cl      1  UNL1       -0.0815
      8 C         139.1187  141.5298  164.6328 C.ar    1  UNL1        0.0266
      9 C         139.4971  144.9230  162.6096 C.1     1  UNL1        0.1013
     10 N         139.1961  146.0572  161.6753 N.1     1  UNL1       -0.1908
     11 C         141.5619  141.7500  171.3747 C.3     1  UNL1        0.0897
     12 N         140.9233  141.1934  170.1369 N.3     1  UNL1       -0.2700
     13 C         139.5977  140.4947  170.0665 C.3     1  UNL1        0.0739
     14 C         139.3532  140.1073  168.6381 C.3     1  UNL1        0.0385
     15 C         140.5277  140.5665  167.8258 C.3     1  UNL1        0.0904
     16 C         141.4980  141.2377  168.7521 C.3     1  UNL1        0.0921
     17 C         141.1758  139.0715  165.8022 C.3     1  UNL1        0.1176
     18 C         142.2195  139.0387  164.7253 C.ar    1  UNL1        0.0015
     19 C         143.5723  139.6374  164.9735 C.ar    1  UNL1       -0.0027
     20 C         144.6160  139.6045  163.8966 C.ar    1  UNL1       -0.0003
     21 C         144.3070  138.9730  162.5717 C.ar    1  UNL1       -0.0001
     22 C         142.9541  138.3742  162.3235 C.ar    1  UNL1        0.0036
     23 C         141.9104  138.4071  163.4003 C.ar    1  UNL1        0.0691
     24 C         140.5577  137.8084  163.1522 C.3     1  UNL1        0.4183
     25 F         139.2049  137.2097  162.9040 F       1  UNL1       -0.1659
     26 F         141.0390  136.4958  163.6955 F       1  UNL1       -0.1659
     27 F         140.0764  139.1211  162.6089 F       1  UNL1       -0.1659
@<TRIPOS>BOND
     1    11    12    1
     2    12    13    1
     3    13    14    1
     4    14    15    1
     5    15     1    1
     6     1    17    1
     7    17    18    1
     8    18    19   ar
     9    19    20   ar
    10    20    21   ar
    11    21    22   ar
    12    22    23   ar
    13    23    24    1
    14    24    25    1
    15    24    26    1
    16    24    27    1
    17     1     2    1
    18     2     3   ar
    19     3     4   ar
    20     4     5   ar
    21     5     9    1
    22     9    10    3
    23     5     6   ar
    24     6     7    1
    25     6     8   ar
    26    15    16    1
    27    16    12    1
    28    23    18   ar
    29     8     2   ar
