@<TRIPOS>MOLECULE
*****
 35 38 0 0 0
SMALL
GASTEIGER

@<TRIPOS>ATOM
      1 C         140.2713  141.3682  161.4730 C.ar    1  UNL1        0.1417
      2 C         139.8394  140.5029  162.6196 C.ar    1  UNL1        0.0743
      3 C         140.3246  139.0868  162.7148 C.ar    1  UNL1        0.1485
      4 C         141.2417  138.5359  161.6635 C.ar    1  UNL1        0.0422
      5 C         141.6737  139.4012  160.5169 C.ar    1  UNL1        0.0597
      6 C         141.1885  140.8174  160.4217 C.ar    1  UNL1        0.0416
      7 C         142.5909  138.8503  159.4655 C.2     1  UNL1        0.2507
      8 O         144.0729  139.0497  159.5839 O.2     1  UNL1       -0.2698
      9 N         142.0261  138.1002  158.2958 N.am    1  UNL1       -0.2662
     10 H         141.0535  137.9693  158.2182 H       1  UNL1        0.1566
     11 C         142.9433  137.5493  157.2444 C.ar    1  UNL1        0.1292
     12 C         142.9673  136.1336  156.7493 C.ar    1  UNL1        0.0563
     13 C         144.0364  136.0267  155.7024 C.ar    1  UNL1        0.1228
     14 N         144.6730  137.3765  155.5507 N.ar    1  UNL1       -0.1700
     15 N         143.9975  138.3174  156.5037 N.ar    1  UNL1       -0.2628
     16 H         144.2088  139.2716  156.6221 H       1  UNL1        0.1903
     17 O         139.7861  142.7844  161.3778 O.3     1  UNL1       -0.4765
     18 C         141.8263  143.6529  162.7318 C.3     1  UNL1        0.0500
     19 C         140.4404  143.8580  162.1959 C.3     1  UNL1        0.1951
     20 C         139.7087  145.1367  162.4782 C.3     1  UNL1        0.1807
     21 O         140.3702  146.4551  162.2061 O.3     1  UNL1       -0.3785
     22 H         141.1271  146.5662  162.8024 H       1  UNL1        0.2106
     23 O         139.8926  138.2215  163.8614 O.3     1  UNL1       -0.4534
     24 C         139.8005  138.7982  165.2431 C.ar    1  UNL1        0.1453
     25 C         141.0368  139.2947  165.9324 C.ar    1  UNL1        0.0376
     26 C         140.9447  139.8714  167.3141 C.ar    1  UNL1        0.0076
     27 C         139.6164  139.9516  168.0064 C.ar    1  UNL1        0.0538
     28 C         138.3802  139.4550  167.3170 C.ar    1  UNL1        0.0076
     29 C         138.4723  138.8783  165.9353 C.ar    1  UNL1        0.0376
     30 C         139.5243  140.5283  169.3880 C.2     1  UNL1        0.2490
     31 O         139.0427  139.6772  170.5254 O.2     1  UNL1       -0.2699
     32 N         139.9139  141.9561  169.6322 N.am    1  UNL1       -0.2760
     33 C         140.4236  143.0777  168.7766 C.3     1  UNL1        0.0955
     34 C         140.4648  143.9753  169.9777 C.3     1  UNL1        0.0430
     35 C         139.9551  142.8537  170.8333 C.3     1  UNL1        0.0955
@<TRIPOS>BOND
     1    19    18    1
     2    19    20    1
     3    20    21    1
     4    19    17    1
     5    17     1    1
     6     1     2   ar
     7     2     3   ar
     8     3    23    1
     9    23    24    1
    10    24    25   ar
    11    25    26   ar
    12    26    27   ar
    13    27    30    1
    14    30    31    2
    15    30    32   am
    16    32    33    1
    17    33    34    1
    18    34    35    1
    19    27    28   ar
    20    28    29   ar
    21     3     4   ar
    22     4     5   ar
    23     5     7    1
    24     7     8    2
    25     7     9   am
    26     9    11    1
    27    11    12   ar
    28    12    13   ar
    29    13    14   ar
    30    14    15   ar
    31     5     6   ar
    32     6     1   ar
    33    29    24   ar
    34    15    11   ar
    35    35    32    1
    36    21    22    1
    37     9    10    1
    38    15    16    1
@<TRIPOS>MOLECULE
*****
 35 38 0 0 0
SMALL
GASTEIGER

@<TRIPOS>ATOM
      1 C         138.2004  141.0553  161.6885 C.ar    1  UNL1        0.1417
      2 C         138.3317  140.1839  162.9023 C.ar    1  UNL1        0.0743
      3 C         139.0100  138.8501  162.7982 C.ar    1  UNL1        0.1485
      4 C         139.5569  138.3876  161.4802 C.ar    1  UNL1        0.0422
      5 C         139.4255  139.2589  160.2664 C.ar    1  UNL1        0.0597
      6 C         138.7472  140.5928  160.3705 C.ar    1  UNL1        0.0416
      7 C         139.9724  138.7965  158.9484 C.2     1  UNL1        0.2507
      8 O         139.0906  138.7793  157.7350 O.2     1  UNL1       -0.2698
      9 N         141.4009  138.3513  158.8438 N.am    1  UNL1       -0.2662
     10 H         141.9796  138.3626  159.6402 H       1  UNL1        0.1566
     11 C         141.9478  137.8888  157.5257 C.ar    1  UNL1        0.1292
     12 C         142.7952  136.6717  157.3011 C.ar    1  UNL1        0.0563
     13 C         143.1144  136.5929  155.8375 C.ar    1  UNL1        0.1228
     14 N         142.4643  137.7614  155.1577 N.ar    1  UNL1       -0.1700
     15 N         141.7433  138.5623  156.2011 N.ar    1  UNL1       -0.2628
     16 H         141.2266  139.3854  156.0441 H       1  UNL1        0.1903
     17 O         137.5221  142.3891  161.7926 O.3     1  UNL1       -0.4765
     18 C         137.7214  143.7918  163.9703 C.3     1  UNL1        0.0500
     19 C         138.1665  143.4997  162.5680 C.3     1  UNL1        0.1951
     20 C         139.2561  144.3182  161.9411 C.3     1  UNL1        0.1807
     21 O         139.0758  145.7967  161.7638 O.3     1  UNL1       -0.3785
     22 H         138.3625  145.9615  161.1275 H       1  UNL1        0.2106
     23 O         139.1413  137.9787  164.0121 O.3     1  UNL1       -0.4534
     24 C         139.2052  138.5982  165.3767 C.ar    1  UNL1        0.1453
     25 C         138.0098  138.5451  166.2812 C.ar    1  UNL1        0.0376
     26 C         138.0736  139.1646  167.6458 C.ar    1  UNL1        0.0076
     27 C         139.3330  139.8374  168.1058 C.ar    1  UNL1        0.0538
     28 C         140.5284  139.8905  167.2013 C.ar    1  UNL1        0.0076
     29 C         140.4645  139.2709  165.8367 C.ar    1  UNL1        0.0376
     30 C         139.3969  140.4569  169.4704 C.2     1  UNL1        0.2490
     31 O         138.9706  139.6682  170.6729 O.2     1  UNL1       -0.2699
     32 N         139.8871  141.8653  169.6324 N.am    1  UNL1       -0.2760
     33 C         140.3816  142.9303  168.6990 C.3     1  UNL1        0.0955
     34 C         140.5803  143.8571  169.8616 C.3     1  UNL1        0.0430
     35 C         140.0857  142.7921  170.7950 C.3     1  UNL1        0.0955
@<TRIPOS>BOND
     1    19    18    1
     2    19    20    1
     3    20    21    1
     4    19    17    1
     5    17     1    1
     6     1     2   ar
     7     2     3   ar
     8     3    23    1
     9    23    24    1
    10    24    25   ar
    11    25    26   ar
    12    26    27   ar
    13    27    30    1
    14    30    31    2
    15    30    32   am
    16    32    33    1
    17    33    34    1
    18    34    35    1
    19    27    28   ar
    20    28    29   ar
    21     3     4   ar
    22     4     5   ar
    23     5     7    1
    24     7     8    2
    25     7     9   am
    26     9    11    1
    27    11    12   ar
    28    12    13   ar
    29    13    14   ar
    30    14    15   ar
    31     5     6   ar
    32     6     1   ar
    33    29    24   ar
    34    15    11   ar
    35    35    32    1
    36    21    22    1
    37     9    10    1
    38    15    16    1
@<TRIPOS>MOLECULE
*****
 35 38 0 0 0
SMALL
GASTEIGER

@<TRIPOS>ATOM
      1 C         137.9394  142.0674  163.1199 C.ar    1  UNL1        0.1417
      2 C         137.9995  141.0298  162.0383 C.ar    1  UNL1        0.0743
      3 C         138.2694  139.5964  162.3883 C.ar    1  UNL1        0.1485
      4 C         138.4791  139.2005  163.8198 C.ar    1  UNL1        0.0422
      5 C         138.4190  140.2381  164.9013 C.ar    1  UNL1        0.0597
      6 C         138.1492  141.6715  164.5514 C.ar    1  UNL1        0.0416
      7 C         138.6287  139.8422  166.3329 C.2     1  UNL1        0.2507
      8 O         137.8488  138.7021  166.9177 O.2     1  UNL1       -0.2698
      9 N         139.6183  140.5864  167.1796 N.am    1  UNL1       -0.2662
     10 H         140.1301  141.3347  166.7957 H       1  UNL1        0.1566
     11 C         139.8280  140.1905  168.6112 C.ar    1  UNL1        0.1292
     12 C         141.1529  140.0009  169.2884 C.ar    1  UNL1        0.0563
     13 C         140.8934  139.6079  170.7126 C.ar    1  UNL1        0.1228
     14 N         139.4081  139.5548  170.9155 N.ar    1  UNL1       -0.1700
     15 N         138.7497  139.9148  169.6168 N.ar    1  UNL1       -0.2628
     16 H         137.7800  139.9619  169.4531 H       1  UNL1        0.1903
     17 O         137.6696  143.5008  162.7700 O.3     1  UNL1       -0.4765
     18 C         138.8531  144.9377  164.5823 C.3     1  UNL1        0.0500
     19 C         138.6608  144.5632  163.1426 C.3     1  UNL1        0.1951
     20 C         139.4597  145.2511  162.0755 C.3     1  UNL1        0.1807
     21 O         140.3655  146.3915  162.4346 O.3     1  UNL1       -0.3785
     22 H         139.8342  147.1402  162.7476 H       1  UNL1        0.2106
     23 O         138.3295  138.5588  161.3066 O.3     1  UNL1       -0.4534
     24 C         139.5003  138.5190  160.3698 C.ar    1  UNL1        0.1453
     25 C         140.8683  138.1940  160.8924 C.ar    1  UNL1        0.0376
     26 C         142.0391  138.1542  159.9556 C.ar    1  UNL1        0.0076
     27 C         141.8419  138.4393  158.4962 C.ar    1  UNL1        0.0538
     28 C         140.4740  138.7643  157.9736 C.ar    1  UNL1        0.0076
     29 C         139.3032  138.8041  158.9104 C.ar    1  UNL1        0.0376
     30 C         143.0127  138.3995  157.5594 C.2     1  UNL1        0.2490
     31 O         144.0166  139.5140  157.5657 O.2     1  UNL1       -0.2699
     32 N         143.1797  137.2450  156.6163 N.am    1  UNL1       -0.2760
     33 C         142.4100  135.9899  156.3293 C.3     1  UNL1        0.0955
     34 C         143.4159  135.6124  155.2825 C.3     1  UNL1        0.0430
     35 C         144.1856  136.8675  155.5696 C.3     1  UNL1        0.0955
@<TRIPOS>BOND
     1    19    18    1
     2    19    20    1
     3    20    21    1
     4    19    17    1
     5    17     1    1
     6     1     2   ar
     7     2     3   ar
     8     3    23    1
     9    23    24    1
    10    24    25   ar
    11    25    26   ar
    12    26    27   ar
    13    27    30    1
    14    30    31    2
    15    30    32   am
    16    32    33    1
    17    33    34    1
    18    34    35    1
    19    27    28   ar
    20    28    29   ar
    21     3     4   ar
    22     4     5   ar
    23     5     7    1
    24     7     8    2
    25     7     9   am
    26     9    11    1
    27    11    12   ar
    28    12    13   ar
    29    13    14   ar
    30    14    15   ar
    31     5     6   ar
    32     6     1   ar
    33    29    24   ar
    34    15    11   ar
    35    35    32    1
    36    21    22    1
    37     9    10    1
    38    15    16    1
@<TRIPOS>MOLECULE
*****
 35 38 0 0 0
SMALL
GASTEIGER

@<TRIPOS>ATOM
      1 C         144.5430  141.2692  162.8366 C.ar    1  UNL1        0.1417
      2 C         144.0565  140.3734  163.9371 C.ar    1  UNL1        0.0743
      3 C         143.4041  139.0641  163.6052 C.ar    1  UNL1        0.1485
      4 C         143.2382  138.6506  162.1730 C.ar    1  UNL1        0.0422
      5 C         143.7246  139.5463  161.0726 C.ar    1  UNL1        0.0597
      6 C         144.3770  140.8556  161.4044 C.ar    1  UNL1        0.0416
      7 C         143.5587  139.1328  159.6402 C.2     1  UNL1        0.2507
      8 O         144.2530  139.8986  158.5533 O.2     1  UNL1       -0.2698
      9 N         142.6984  137.9536  159.2949 N.am    1  UNL1       -0.2662
     10 H         142.2427  137.4510  160.0083 H       1  UNL1        0.1566
     11 C         142.5325  137.5400  157.8625 C.ar    1  UNL1        0.1292
     12 C         141.5908  138.1559  156.8706 C.ar    1  UNL1        0.0563
     13 C         141.7554  137.4346  155.5657 C.ar    1  UNL1        0.1228
     14 N         142.7988  136.3730  155.7512 N.ar    1  UNL1       -0.1700
     15 N         143.2791  136.4382  157.1708 N.ar    1  UNL1       -0.2628
     16 H         143.9640  135.8594  157.5771 H       1  UNL1        0.1903
     17 O         145.1953  142.5785  163.1685 O.3     1  UNL1       -0.4765
     18 C         143.7313  144.7097  162.9143 C.3     1  UNL1        0.0500
     19 C         144.3898  143.6824  163.7868 C.3     1  UNL1        0.1951
     20 C         144.2426  143.7592  165.2776 C.3     1  UNL1        0.1807
     21 O         145.3890  144.2329  166.1210 O.3     1  UNL1       -0.3785
     22 H         146.1183  143.5961  166.0625 H       1  UNL1        0.2106
     23 O         142.9177  138.1683  164.7057 O.3     1  UNL1       -0.4534
     24 C         142.2608  138.7587  165.9181 C.ar    1  UNL1        0.1453
     25 C         143.0335  138.8995  167.1961 C.ar    1  UNL1        0.0376
     26 C         142.3766  139.4899  168.4085 C.ar    1  UNL1        0.0076
     27 C         140.9470  139.9394  168.3430 C.ar    1  UNL1        0.0538
     28 C         140.1744  139.7985  167.0651 C.ar    1  UNL1        0.0076
     29 C         140.8313  139.2082  165.8526 C.ar    1  UNL1        0.0376
     30 C         140.2901  140.5297  169.5554 C.2     1  UNL1        0.2490
     31 O         139.6607  139.6323  170.5793 O.2     1  UNL1       -0.2699
     32 N         140.2626  142.0177  169.7439 N.am    1  UNL1       -0.2760
     33 C         140.7683  143.1951  168.9643 C.3     1  UNL1        0.0955
     34 C         140.2237  144.1218  170.0106 C.3     1  UNL1        0.0430
     35 C         139.7180  142.9443  170.7902 C.3     1  UNL1        0.0955
@<TRIPOS>BOND
     1    19    18    1
     2    19    20    1
     3    20    21    1
     4    19    17    1
     5    17     1    1
     6     1     2   ar
     7     2     3   ar
     8     3    23    1
     9    23    24    1
    10    24    25   ar
    11    25    26   ar
    12    26    27   ar
    13    27    30    1
    14    30    31    2
    15    30    32   am
    16    32    33    1
    17    33    34    1
    18    34    35    1
    19    27    28   ar
    20    28    29   ar
    21     3     4   ar
    22     4     5   ar
    23     5     7    1
    24     7     8    2
    25     7     9   am
    26     9    11    1
    27    11    12   ar
    28    12    13   ar
    29    13    14   ar
    30    14    15   ar
    31     5     6   ar
    32     6     1   ar
    33    29    24   ar
    34    15    11   ar
    35    35    32    1
    36    21    22    1
    37     9    10    1
    38    15    16    1
@<TRIPOS>MOLECULE
*****
 35 38 0 0 0
SMALL
GASTEIGER

@<TRIPOS>ATOM
      1 C         137.9202  142.4009  162.4133 C.ar    1  UNL1        0.1417
      2 C         138.1430  141.3250  163.4344 C.ar    1  UNL1        0.0743
      3 C         138.4450  139.9234  162.9935 C.ar    1  UNL1        0.1485
      4 C         138.5243  139.5978  161.5315 C.ar    1  UNL1        0.0422
      5 C         138.3015  140.6737  160.5104 C.ar    1  UNL1        0.0597
      6 C         137.9995  142.0752  160.9513 C.ar    1  UNL1        0.0416
      7 C         138.3808  140.3481  159.0482 C.2     1  UNL1        0.2507
      8 O         138.9526  139.0350  158.6022 O.2     1  UNL1       -0.2698
      9 N         137.8883  141.3355  158.0322 N.am    1  UNL1       -0.2662
     10 H         137.5131  142.1973  158.3249 H       1  UNL1        0.1566
     11 C         137.9676  141.0099  156.5700 C.ar    1  UNL1        0.1292
     12 C         138.1646  141.9957  155.4567 C.ar    1  UNL1        0.0563
     13 C         138.1825  141.2364  154.1631 C.ar    1  UNL1        0.1228
     14 N         137.9966  139.7814  154.4771 N.ar    1  UNL1       -0.1700
     15 N         137.8638  139.6415  155.9646 N.ar    1  UNL1       -0.2628
     16 H         137.7316  138.7993  156.4571 H       1  UNL1        0.1903
     17 O         137.6181  143.8024  162.8543 O.3     1  UNL1       -0.4765
     18 C         139.0600  144.7356  164.8037 C.3     1  UNL1        0.0500
     19 C         138.7244  144.6899  163.3424 C.3     1  UNL1        0.1951
     20 C         139.4953  145.5319  162.3693 C.3     1  UNL1        0.1807
     21 O         140.7933  146.1589  162.7839 O.3     1  UNL1       -0.3785
     22 H         140.6272  146.8197  163.4743 H       1  UNL1        0.2106
     23 O         138.6678  138.8475  164.0147 O.3     1  UNL1       -0.4534
     24 C         139.0459  139.2134  165.4194 C.ar    1  UNL1        0.1453
     25 C         140.4500  139.6392  165.7314 C.ar    1  UNL1        0.0376
     26 C         140.8281  140.0052  167.1361 C.ar    1  UNL1        0.0076
     27 C         139.8021  139.9453  168.2288 C.ar    1  UNL1        0.0538
     28 C         138.3981  139.5194  167.9167 C.ar    1  UNL1        0.0076
     29 C         138.0200  139.1535  166.5120 C.ar    1  UNL1        0.0376
     30 C         140.1802  140.3112  169.6335 C.2     1  UNL1        0.2490
     31 O         139.5605  139.5849  170.7904 O.2     1  UNL1       -0.2699
     32 N         141.1781  141.4035  169.8812 N.am    1  UNL1       -0.2760
     33 C         141.9823  142.3229  169.0107 C.3     1  UNL1        0.0955
     34 C         142.5892  142.9481  170.2317 C.3     1  UNL1        0.0430
     35 C         141.7849  142.0287  171.1022 C.3     1  UNL1        0.0955
@<TRIPOS>BOND
     1    19    18    1
     2    19    20    1
     3    20    21    1
     4    19    17    1
     5    17     1    1
     6     1     2   ar
     7     2     3   ar
     8     3    23    1
     9    23    24    1
    10    24    25   ar
    11    25    26   ar
    12    26    27   ar
    13    27    30    1
    14    30    31    2
    15    30    32   am
    16    32    33    1
    17    33    34    1
    18    34    35    1
    19    27    28   ar
    20    28    29   ar
    21     3     4   ar
    22     4     5   ar
    23     5     7    1
    24     7     8    2
    25     7     9   am
    26     9    11    1
    27    11    12   ar
    28    12    13   ar
    29    13    14   ar
    30    14    15   ar
    31     5     6   ar
    32     6     1   ar
    33    29    24   ar
    34    15    11   ar
    35    35    32    1
    36    21    22    1
    37     9    10    1
    38    15    16    1
@<TRIPOS>MOLECULE
*****
 35 38 0 0 0
SMALL
GASTEIGER

@<TRIPOS>ATOM
      1 C         140.6635  140.1460  161.3417 C.ar    1  UNL1        0.1417
      2 C         141.6659  140.3504  162.4387 C.ar    1  UNL1        0.0743
      3 C         143.0906  139.9241  162.2418 C.ar    1  UNL1        0.1485
      4 C         143.5128  139.2935  160.9480 C.ar    1  UNL1        0.0422
      5 C         142.5104  139.0891  159.8511 C.ar    1  UNL1        0.0597
      6 C         141.0858  139.5153  160.0479 C.ar    1  UNL1        0.0416
      7 C         142.9326  138.4584  158.5572 C.2     1  UNL1        0.2507
      8 O         143.9314  139.1493  157.6768 O.2     1  UNL1       -0.2698
      9 N         142.3560  137.1368  158.1437 N.am    1  UNL1       -0.2662
     10 H         141.7005  136.6834  158.7215 H       1  UNL1        0.1566
     11 C         142.7782  136.5062  156.8498 C.ar    1  UNL1        0.1292
     12 C         141.9317  135.6226  155.9822 C.ar    1  UNL1        0.0563
     13 C         142.7513  135.2187  154.7925 C.ar    1  UNL1        0.1228
     14 N         144.1043  135.8527  154.9250 N.ar    1  UNL1       -0.1700
     15 N         144.1209  136.6484  156.1964 N.ar    1  UNL1       -0.2628
     16 H         144.8798  137.1720  156.5415 H       1  UNL1        0.1903
     17 O         139.2389  140.5722  161.5385 O.3     1  UNL1       -0.4765
     18 C         138.1655  138.2905  162.1640 C.3     1  UNL1        0.0500
     19 C         138.3271  139.7612  162.4107 C.3     1  UNL1        0.1951
     20 C         137.5768  140.4208  163.5296 C.3     1  UNL1        0.1807
     21 O         136.5143  141.4349  163.2249 O.3     1  UNL1       -0.3785
     22 H         136.9205  142.2166  162.8187 H       1  UNL1        0.2106
     23 O         144.0930  140.1285  163.3389 O.3     1  UNL1       -0.4534
     24 C         143.6566  140.0754  164.7730 C.ar    1  UNL1        0.1453
     25 C         143.3059  141.3412  165.4976 C.ar    1  UNL1        0.0376
     26 C         142.8695  141.2881  166.9317 C.ar    1  UNL1        0.0076
     27 C         142.7838  139.9692  167.6413 C.ar    1  UNL1        0.0538
     28 C         143.1345  138.7035  166.9166 C.ar    1  UNL1        0.0076
     29 C         143.5709  138.7566  165.4825 C.ar    1  UNL1        0.0376
     30 C         142.3474  139.9161  169.0754 C.2     1  UNL1        0.2490
     31 O         143.3604  139.6988  170.1600 O.2     1  UNL1       -0.2699
     32 N         140.8979  140.0804  169.4248 N.am    1  UNL1       -0.2760
     33 C         139.6375  140.3069  168.6437 C.3     1  UNL1        0.0955
     34 C         138.8481  140.3126  169.9191 C.3     1  UNL1        0.0430
     35 C         140.1084  140.0861  170.7003 C.3     1  UNL1        0.0955
@<TRIPOS>BOND
     1    19    18    1
     2    19    20    1
     3    20    21    1
     4    19    17    1
     5    17     1    1
     6     1     2   ar
     7     2     3   ar
     8     3    23    1
     9    23    24    1
    10    24    25   ar
    11    25    26   ar
    12    26    27   ar
    13    27    30    1
    14    30    31    2
    15    30    32   am
    16    32    33    1
    17    33    34    1
    18    34    35    1
    19    27    28   ar
    20    28    29   ar
    21     3     4   ar
    22     4     5   ar
    23     5     7    1
    24     7     8    2
    25     7     9   am
    26     9    11    1
    27    11    12   ar
    28    12    13   ar
    29    13    14   ar
    30    14    15   ar
    31     5     6   ar
    32     6     1   ar
    33    29    24   ar
    34    15    11   ar
    35    35    32    1
    36    21    22    1
    37     9    10    1
    38    15    16    1
@<TRIPOS>MOLECULE
*****
 35 38 0 0 0
SMALL
GASTEIGER

@<TRIPOS>ATOM
      1 C         139.8622  141.8552  161.1963 C.ar    1  UNL1        0.1417
      2 C         139.5722  140.8769  162.2958 C.ar    1  UNL1        0.0743
      3 C         140.3718  139.6125  162.4049 C.ar    1  UNL1        0.1485
      4 C         141.4614  139.3264  161.4145 C.ar    1  UNL1        0.0422
      5 C         141.7514  140.3047  160.3150 C.ar    1  UNL1        0.0597
      6 C         140.9518  141.5691  160.2060 C.ar    1  UNL1        0.0416
      7 C         142.8410  140.0186  159.3246 C.2     1  UNL1        0.2507
      8 O         143.7110  138.8087  159.4954 O.2     1  UNL1       -0.2698
      9 N         143.0606  140.9424  158.1634 N.am    1  UNL1       -0.2662
     10 H         142.4895  141.7364  158.0513 H       1  UNL1        0.1566
     11 C         144.1502  140.6562  157.1729 C.ar    1  UNL1        0.1292
     12 C         145.1815  141.6327  156.6903 C.ar    1  UNL1        0.0563
     13 C         146.0685  140.9235  155.7103 C.ar    1  UNL1        0.1228
     14 N         145.5853  139.5087  155.5874 N.ar    1  UNL1       -0.1700
     15 N         144.3998  139.3436  156.4913 N.ar    1  UNL1       -0.2628
     16 H         143.8772  138.5185  156.6155 H       1  UNL1        0.1903
     17 O         139.0626  143.1196  161.0873 O.3     1  UNL1       -0.4765
     18 C         138.6310  144.3627  163.3274 C.3     1  UNL1        0.0500
     19 C         139.3441  144.2671  162.0113 C.3     1  UNL1        0.1951
     20 C         140.3389  145.3192  161.6191 C.3     1  UNL1        0.1807
     21 O         140.3706  146.6301  162.3474 O.3     1  UNL1       -0.3785
     22 H         139.5472  147.1141  162.1780 H       1  UNL1        0.2106
     23 O         140.0818  138.6342  163.5044 O.3     1  UNL1       -0.4534
     24 C         140.0266  139.1015  164.9287 C.ar    1  UNL1        0.1453
     25 C         138.7165  139.1293  165.6587 C.ar    1  UNL1        0.0376
     26 C         138.6613  139.5966  167.0830 C.ar    1  UNL1        0.0076
     27 C         139.9163  140.0359  167.7773 C.ar    1  UNL1        0.0538
     28 C         141.2263  140.0080  167.0474 C.ar    1  UNL1        0.0076
     29 C         141.2815  139.5408  165.6231 C.ar    1  UNL1        0.0376
     30 C         139.8611  140.5031  169.2016 C.2     1  UNL1        0.2490
     31 O         139.5712  139.5249  170.3012 O.2     1  UNL1       -0.2699
     32 N         140.0958  141.9487  169.5264 N.am    1  UNL1       -0.2760
     33 C         140.4027  143.1794  168.7257 C.3     1  UNL1        0.0955
     34 C         140.4278  143.9929  169.9858 C.3     1  UNL1        0.0430
     35 C         140.1209  142.7621  170.7864 C.3     1  UNL1        0.0955
@<TRIPOS>BOND
     1    19    18    1
     2    19    20    1
     3    20    21    1
     4    19    17    1
     5    17     1    1
     6     1     2   ar
     7     2     3   ar
     8     3    23    1
     9    23    24    1
    10    24    25   ar
    11    25    26   ar
    12    26    27   ar
    13    27    30    1
    14    30    31    2
    15    30    32   am
    16    32    33    1
    17    33    34    1
    18    34    35    1
    19    27    28   ar
    20    28    29   ar
    21     3     4   ar
    22     4     5   ar
    23     5     7    1
    24     7     8    2
    25     7     9   am
    26     9    11    1
    27    11    12   ar
    28    12    13   ar
    29    13    14   ar
    30    14    15   ar
    31     5     6   ar
    32     6     1   ar
    33    29    24   ar
    34    15    11   ar
    35    35    32    1
    36    21    22    1
    37     9    10    1
    38    15    16    1
@<TRIPOS>MOLECULE
*****
 35 38 0 0 0
SMALL
GASTEIGER

@<TRIPOS>ATOM
      1 C         142.0609  141.0529  161.9577 C.ar    1  UNL1        0.1417
      2 C         141.5705  140.2274  163.1101 C.ar    1  UNL1        0.0743
      3 C         141.1593  138.8017  162.8902 C.ar    1  UNL1        0.1485
      4 C         141.2385  138.2015  161.5179 C.ar    1  UNL1        0.0422
      5 C         141.7289  139.0269  160.3654 C.ar    1  UNL1        0.0597
      6 C         142.1401  140.4526  160.5853 C.ar    1  UNL1        0.0416
      7 C         141.8081  138.4267  158.9930 C.2     1  UNL1        0.2507
      8 O         143.0545  137.7155  158.5563 O.2     1  UNL1       -0.2698
      9 N         140.6410  138.5376  158.0574 N.am    1  UNL1       -0.2662
     10 H         139.8229  139.0044  158.3440 H       1  UNL1        0.1566
     11 C         140.7202  137.9373  156.6849 C.ar    1  UNL1        0.1292
     12 C         141.2594  138.6109  155.4579 C.ar    1  UNL1        0.0563
     13 C         141.1466  137.6480  154.3132 C.ar    1  UNL1        0.1228
     14 N         140.5376  136.3795  154.8329 N.ar    1  UNL1       -0.1700
     15 N         140.2741  136.5583  156.2987 N.ar    1  UNL1       -0.2628
     16 H         139.8780  135.8882  156.9014 H       1  UNL1        0.1903
     17 O         142.4720  142.4786  162.1776 O.3     1  UNL1       -0.4765
     18 C         144.3534  144.2166  162.6131 C.3     1  UNL1        0.0500
     19 C         143.8703  142.7965  162.6177 C.3     1  UNL1        0.1951
     20 C         144.7855  141.6944  163.0624 C.3     1  UNL1        0.1807
     21 O         146.2720  141.8666  162.9596 O.3     1  UNL1       -0.3785
     22 H         146.5272  141.9224  162.0254 H       1  UNL1        0.2106
     23 O         140.6690  137.9763  164.0427 O.3     1  UNL1       -0.4534
     24 C         140.3746  138.6288  165.3609 C.ar    1  UNL1        0.1453
     25 C         141.4979  139.1508  166.2069 C.ar    1  UNL1        0.0376
     26 C         141.2035  139.8033  167.5250 C.ar    1  UNL1        0.0076
     27 C         139.7857  139.9338  167.9972 C.ar    1  UNL1        0.0538
     28 C         138.6624  139.4118  167.1513 C.ar    1  UNL1        0.0076
     29 C         138.9568  138.7593  165.8331 C.ar    1  UNL1        0.0376
     30 C         139.4913  140.5863  169.3154 C.2     1  UNL1        0.2490
     31 O         138.7850  139.8169  170.3920 O.2     1  UNL1       -0.2699
     32 N         139.9032  142.0084  169.5569 N.am    1  UNL1       -0.2760
     33 C         140.6029  143.0616  168.7501 C.3     1  UNL1        0.0955
     34 C         140.4856  144.0194  169.8986 C.3     1  UNL1        0.0430
     35 C         139.7859  142.9661  170.7054 C.3     1  UNL1        0.0955
@<TRIPOS>BOND
     1    19    18    1
     2    19    20    1
     3    20    21    1
     4    19    17    1
     5    17     1    1
     6     1     2   ar
     7     2     3   ar
     8     3    23    1
     9    23    24    1
    10    24    25   ar
    11    25    26   ar
    12    26    27   ar
    13    27    30    1
    14    30    31    2
    15    30    32   am
    16    32    33    1
    17    33    34    1
    18    34    35    1
    19    27    28   ar
    20    28    29   ar
    21     3     4   ar
    22     4     5   ar
    23     5     7    1
    24     7     8    2
    25     7     9   am
    26     9    11    1
    27    11    12   ar
    28    12    13   ar
    29    13    14   ar
    30    14    15   ar
    31     5     6   ar
    32     6     1   ar
    33    29    24   ar
    34    15    11   ar
    35    35    32    1
    36    21    22    1
    37     9    10    1
    38    15    16    1
@<TRIPOS>MOLECULE
*****
 35 38 0 0 0
SMALL
GASTEIGER

@<TRIPOS>ATOM
      1 C         143.7803  140.3106  161.2837 C.ar    1  UNL1        0.1417
      2 C         143.2041  139.6310  162.4903 C.ar    1  UNL1        0.0743
      3 C         142.3752  138.3913  162.3285 C.ar    1  UNL1        0.1485
      4 C         142.1226  137.8313  160.9602 C.ar    1  UNL1        0.0422
      5 C         142.6989  138.5109  159.7536 C.ar    1  UNL1        0.0597
      6 C         143.5277  139.7506  159.9153 C.ar    1  UNL1        0.0416
      7 C         142.4463  137.9508  158.3851 C.2     1  UNL1        0.2507
      8 O         141.4753  138.6291  157.4646 O.2     1  UNL1       -0.2698
      9 N         143.1646  136.7126  157.9372 N.am    1  UNL1       -0.2662
     10 H         143.8019  136.2674  158.5413 H       1  UNL1        0.1566
     11 C         142.9120  136.1525  156.5687 C.ar    1  UNL1        0.1292
     12 C         142.8681  134.6977  156.2059 C.ar    1  UNL1        0.0563
     13 C         142.5880  134.5949  154.7358 C.ar    1  UNL1        0.1228
     14 N         142.4587  135.9863  154.1902 N.ar    1  UNL1       -0.1700
     15 N         142.6590  136.9488  155.3230 N.ar    1  UNL1       -0.2628
     16 H         142.6295  137.9309  155.2600 H       1  UNL1        0.1903
     17 O         144.6092  141.5503  161.4454 O.3     1  UNL1       -0.4765
     18 C         142.8893  143.2442  160.4848 C.3     1  UNL1        0.0500
     19 C         143.9464  142.8951  161.4902 C.3     1  UNL1        0.1951
     20 C         144.3406  143.8910  162.5404 C.3     1  UNL1        0.1807
     21 O         143.7045  145.2493  162.5624 O.3     1  UNL1       -0.3785
     22 H         143.9638  145.7407  161.7673 H       1  UNL1        0.2106
     23 O         141.7989  137.7117  163.5353 O.3     1  UNL1       -0.4534
     24 C         141.9012  138.3625  164.8829 C.ar    1  UNL1        0.1453
     25 C         140.7319  139.1181  165.4416 C.ar    1  UNL1        0.0376
     26 C         140.8342  139.7688  166.7892 C.ar    1  UNL1        0.0076
     27 C         142.1057  139.6640  167.5781 C.ar    1  UNL1        0.0538
     28 C         143.2749  138.9084  167.0194 C.ar    1  UNL1        0.0076
     29 C         143.1726  138.2577  165.6718 C.ar    1  UNL1        0.0376
     30 C         142.2080  140.3147  168.9257 C.2     1  UNL1        0.2490
     31 O         142.9910  139.6530  170.0207 O.2     1  UNL1       -0.2699
     32 N         141.5272  141.6273  169.1784 N.am    1  UNL1       -0.2760
     33 C         140.6844  142.5599  168.3599 C.3     1  UNL1        0.0955
     34 C         140.5645  143.4835  169.5357 C.3     1  UNL1        0.0430
     35 C         141.4073  142.5509  170.3542 C.3     1  UNL1        0.0955
@<TRIPOS>BOND
     1    19    18    1
     2    19    20    1
     3    20    21    1
     4    19    17    1
     5    17     1    1
     6     1     2   ar
     7     2     3   ar
     8     3    23    1
     9    23    24    1
    10    24    25   ar
    11    25    26   ar
    12    26    27   ar
    13    27    30    1
    14    30    31    2
    15    30    32   am
    16    32    33    1
    17    33    34    1
    18    34    35    1
    19    27    28   ar
    20    28    29   ar
    21     3     4   ar
    22     4     5   ar
    23     5     7    1
    24     7     8    2
    25     7     9   am
    26     9    11    1
    27    11    12   ar
    28    12    13   ar
    29    13    14   ar
    30    14    15   ar
    31     5     6   ar
    32     6     1   ar
    33    29    24   ar
    34    15    11   ar
    35    35    32    1
    36    21    22    1
    37     9    10    1
    38    15    16    1
