@<TRIPOS>MOLECULE
*****
 31 35 0 0 0
SMALL
GASTEIGER

@<TRIPOS>ATOM
      1 N         141.8204  140.2842  162.5014 N.3     1  UNL1       -0.2725
      2 C         140.6030  140.0860  163.3549 C.3     1  UNL1        0.0738
      3 C         140.7254  140.0959  164.8499 C.3     1  UNL1        0.0376
      4 C         142.0653  140.3039  165.4913 C.3     1  UNL1        0.0841
      5 C         143.2828  140.5022  164.6377 C.3     1  UNL1        0.0376
      6 C         143.1603  140.4923  163.1428 C.3     1  UNL1        0.0738
      7 N         142.1878  140.3138  166.9862 N.am    1  UNL1       -0.2423
      8 C         142.9348  139.3123  167.8163 C.2     1  UNL1        0.3309
      9 O         143.6905  138.1252  167.2971 O.2     1  UNL1       -0.2501
     10 N         142.7934  139.7064  169.2567 N.am    1  UNL1       -0.1647
     11 C         141.9590  140.9515  169.3168 C.2     1  UNL1        0.0706
     12 C         141.4918  141.7919  170.4681 C.3     1  UNL1        0.0705
     13 C         140.6501  143.0078  170.2161 C.2     1  UNL1       -0.0199
     14 C         140.2758  143.3831  168.8129 C.2     1  UNL1       -0.0029
     15 C         140.7431  142.5427  167.6616 C.2     1  UNL1        0.0156
     16 C         141.5847  141.3269  167.9136 C.2     1  UNL1        0.0668
     17 C         141.6979  140.2744  161.0064 C.3     1  UNL1        0.0739
     18 C         142.3331  141.3642  160.1947 C.3     1  UNL1        0.0392
     19 C         141.7860  142.7596  160.2542 C.3     1  UNL1        0.0996
     20 O         144.2846  143.8685  161.4900 O.2     1  UNL1       -0.2745
     21 C         142.9657  144.0370  162.1845 C.2     1  UNL1        0.2297
     22 C         142.8963  144.7600  163.4970 C.3     1  UNL1        0.0904
     23 C         141.5775  144.9285  164.1915 C.3     1  UNL1        0.0395
     24 C         140.3281  144.3740  163.5736 C.ar    1  UNL1        0.0194
     25 C         139.0094  144.5425  164.2682 C.ar    1  UNL1        0.1373
     26 F         138.9399  145.2655  165.5806 F       1  UNL1       -0.2045
     27 C         137.7601  143.9881  163.6503 C.ar    1  UNL1        0.0294
     28 C         137.8296  143.2651  162.3378 C.ar    1  UNL1        0.0036
     29 C         139.1483  143.0966  161.6433 C.ar    1  UNL1        0.0147
     30 C         140.3976  143.6511  162.2612 C.ar    1  UNL1        0.0520
     31 N         141.7165  143.4826  161.5666 N.am    1  UNL1       -0.2588
@<TRIPOS>BOND
     1    20    21    2
     2    21    22    1
     3    22    23    1
     4    23    24    1
     5    24    25   ar
     6    25    26    1
     7    25    27   ar
     8    27    28   ar
     9    28    29   ar
    10    29    30   ar
    11    30    31    1
    12    31    19    1
    13    19    18    1
    14    18    17    1
    15    17     1    1
    16     1     2    1
    17     2     3    1
    18     3     4    1
    19     4     7    1
    20     7     8   am
    21     8     9    2
    22     8    10    1
    23    10    11    2
    24    11    12    1
    25    12    13    1
    26    13    14    2
    27    14    15    1
    28    15    16    2
    29     4     5    1
    30     5     6    1
    31    31    21   am
    32     6     1    1
    33    30    24   ar
    34    16     7    1
    35    16    11    1
@<TRIPOS>MOLECULE
*****
 31 35 0 0 0
SMALL
GASTEIGER

@<TRIPOS>ATOM
      1 N         140.5941  139.5710  162.9906 N.3     1  UNL1       -0.2725
      2 C         141.0333  138.5105  163.9562 C.3     1  UNL1        0.0738
      3 C         140.9942  138.7770  165.4318 C.3     1  UNL1        0.0376
      4 C         140.5159  140.1040  165.9419 C.3     1  UNL1        0.0841
      5 C         140.0767  141.1646  164.9762 C.3     1  UNL1        0.0376
      6 C         140.1158  140.8981  163.5007 C.3     1  UNL1        0.0738
      7 N         140.4767  140.3705  167.4175 N.am    1  UNL1       -0.2423
      8 C         139.4100  139.9137  168.3679 C.2     1  UNL1        0.3309
      9 O         138.1951  139.1102  168.0096 O.2     1  UNL1       -0.2501
     10 N         139.7714  140.4015  169.7395 N.am    1  UNL1       -0.1647
     11 C         141.0616  141.1598  169.6369 C.2     1  UNL1        0.0706
     12 C         141.8957  141.8652  170.6647 C.3     1  UNL1        0.0705
     13 C         143.1658  142.5516  170.2575 C.2     1  UNL1       -0.0199
     14 C         143.6017  142.5324  168.8223 C.2     1  UNL1       -0.0029
     15 C         142.7675  141.8270  167.7944 C.2     1  UNL1        0.0156
     16 C         141.4975  141.1407  168.2017 C.2     1  UNL1        0.0668
     17 C         140.6333  139.3045  161.5150 C.3     1  UNL1        0.0739
     18 C         141.1771  140.3433  160.5794 C.3     1  UNL1        0.0392
     19 C         142.6442  140.6555  160.5764 C.3     1  UNL1        0.0996
     20 O         144.0804  138.3112  161.7773 O.2     1  UNL1       -0.2745
     21 C         144.0986  139.6393  162.4744 C.2     1  UNL1        0.2297
     22 C         144.8349  139.7953  163.7719 C.3     1  UNL1        0.0904
     23 C         144.8530  141.1233  164.4690 C.3     1  UNL1        0.0395
     24 C         144.1349  142.2954  163.8686 C.ar    1  UNL1        0.0194
     25 C         144.1531  143.6235  164.5657 C.ar    1  UNL1        0.1373
     26 F         144.8894  143.7794  165.8633 F       1  UNL1       -0.2045
     27 C         143.4350  144.7955  163.9653 C.ar    1  UNL1        0.0294
     28 C         142.6987  144.6396  162.6678 C.ar    1  UNL1        0.0036
     29 C         142.6806  143.3116  161.9707 C.ar    1  UNL1        0.0147
     30 C         143.3987  142.1395  162.5711 C.ar    1  UNL1        0.0520
     31 N         143.3805  140.8114  161.8740 N.am    1  UNL1       -0.2588
@<TRIPOS>BOND
     1    20    21    2
     2    21    22    1
     3    22    23    1
     4    23    24    1
     5    24    25   ar
     6    25    26    1
     7    25    27   ar
     8    27    28   ar
     9    28    29   ar
    10    29    30   ar
    11    30    31    1
    12    31    19    1
    13    19    18    1
    14    18    17    1
    15    17     1    1
    16     1     2    1
    17     2     3    1
    18     3     4    1
    19     4     7    1
    20     7     8   am
    21     8     9    2
    22     8    10    1
    23    10    11    2
    24    11    12    1
    25    12    13    1
    26    13    14    2
    27    14    15    1
    28    15    16    2
    29     4     5    1
    30     5     6    1
    31    31    21   am
    32     6     1    1
    33    30    24   ar
    34    16     7    1
    35    16    11    1
@<TRIPOS>MOLECULE
*****
 31 35 0 0 0
SMALL
GASTEIGER

@<TRIPOS>ATOM
      1 N         141.3403  142.7703  161.7752 N.3     1  UNL1       -0.2725
      2 C         141.2177  143.9374  162.7094 C.3     1  UNL1        0.0738
      3 C         141.5758  143.7797  164.1576 C.3     1  UNL1        0.0376
      4 C         142.0564  142.4549  164.6713 C.3     1  UNL1        0.0841
      5 C         142.1789  141.2878  163.7370 C.3     1  UNL1        0.0376
      6 C         141.8209  141.4455  162.2889 C.3     1  UNL1        0.0738
      7 N         142.4144  142.2972  166.1194 N.am    1  UNL1       -0.2423
      8 C         143.6189  142.8788  166.7982 C.2     1  UNL1        0.3309
      9 O         144.6769  143.7202  166.1481 O.2     1  UNL1       -0.2501
     10 N         143.5798  142.4712  168.2412 N.am    1  UNL1       -0.1647
     11 C         142.3509  141.6377  168.4543 C.2     1  UNL1        0.0706
     12 C         141.7949  140.9628  169.6730 C.3     1  UNL1        0.0705
     13 C         140.5185  140.1803  169.5803 C.2     1  UNL1       -0.0199
     14 C         139.7982  140.0727  168.2689 C.2     1  UNL1       -0.0029
     15 C         140.3544  140.7476  167.0502 C.2     1  UNL1        0.0156
     16 C         141.6307  141.5301  167.1429 C.2     1  UNL1        0.0668
     17 C         140.9823  142.9280  160.3271 C.3     1  UNL1        0.0739
     18 C         139.5929  143.3385  159.9384 C.3     1  UNL1        0.0392
     19 C         138.4224  142.4836  160.3251 C.3     1  UNL1        0.0996
     20 O         137.6301  144.4481  162.4495 O.2     1  UNL1       -0.2745
     21 C         137.8667  143.0108  162.8076 C.2     1  UNL1        0.2297
     22 C         137.7070  142.5557  164.2280 C.3     1  UNL1        0.0904
     23 C         137.9436  141.1185  164.5862 C.3     1  UNL1        0.0395
     24 C         138.3398  140.1362  163.5239 C.ar    1  UNL1        0.0194
     25 C         138.5763  138.6989  163.8821 C.ar    1  UNL1        0.1373
     26 F         138.4167  138.2439  165.3025 F       1  UNL1       -0.2045
     27 C         138.9724  137.7167  162.8199 C.ar    1  UNL1        0.0294
     28 C         139.1321  138.1718  161.3995 C.ar    1  UNL1        0.0036
     29 C         138.8955  139.6090  161.0414 C.ar    1  UNL1        0.0147
     30 C         138.4994  140.5912  162.1036 C.ar    1  UNL1        0.0520
     31 N         138.2628  142.0286  161.7454 N.am    1  UNL1       -0.2588
@<TRIPOS>BOND
     1    20    21    2
     2    21    22    1
     3    22    23    1
     4    23    24    1
     5    24    25   ar
     6    25    26    1
     7    25    27   ar
     8    27    28   ar
     9    28    29   ar
    10    29    30   ar
    11    30    31    1
    12    31    19    1
    13    19    18    1
    14    18    17    1
    15    17     1    1
    16     1     2    1
    17     2     3    1
    18     3     4    1
    19     4     7    1
    20     7     8   am
    21     8     9    2
    22     8    10    1
    23    10    11    2
    24    11    12    1
    25    12    13    1
    26    13    14    2
    27    14    15    1
    28    15    16    2
    29     4     5    1
    30     5     6    1
    31    31    21   am
    32     6     1    1
    33    30    24   ar
    34    16     7    1
    35    16    11    1
@<TRIPOS>MOLECULE
*****
 31 35 0 0 0
SMALL
GASTEIGER

@<TRIPOS>ATOM
      1 N         140.1458  140.9124  162.2902 N.3     1  UNL1       -0.2725
      2 C         140.9409  139.8048  162.9155 C.3     1  UNL1        0.0738
      3 C         140.9792  139.6591  164.4079 C.3     1  UNL1        0.0376
      4 C         140.2223  140.6211  165.2750 C.3     1  UNL1        0.0841
      5 C         139.4272  141.7287  164.6497 C.3     1  UNL1        0.0376
      6 C         139.3889  141.8743  163.1573 C.3     1  UNL1        0.0738
      7 N         140.2606  140.4754  166.7674 N.am    1  UNL1       -0.2423
      8 C         139.2680  139.7260  167.6059 C.2     1  UNL1        0.3309
      9 O         138.0628  138.9906  167.0992 O.2     1  UNL1       -0.2501
     10 N         139.6921  139.8411  169.0401 N.am    1  UNL1       -0.1647
     11 C         140.9469  140.6616  169.0880 C.2     1  UNL1        0.0706
     12 C         141.8148  141.1024  170.2292 C.3     1  UNL1        0.0705
     13 C         143.0343  141.9353  169.9658 C.2     1  UNL1       -0.0199
     14 C         143.3856  142.3274  168.5611 C.2     1  UNL1       -0.0029
     15 C         142.5176  141.8865  167.4200 C.2     1  UNL1        0.0156
     16 C         141.2982  141.0537  167.6834 C.2     1  UNL1        0.0668
     17 C         140.1075  141.0580  160.7978 C.3     1  UNL1        0.0739
     18 C         140.3077  142.4056  160.1703 C.3     1  UNL1        0.0392
     19 C         141.6300  143.1028  160.2965 C.3     1  UNL1        0.0996
     20 O         140.2119  145.5231  161.3603 O.2     1  UNL1       -0.2745
     21 C         141.3334  144.9065  162.1428 C.2     1  UNL1        0.2297
     22 C         141.7458  145.5001  163.4571 C.3     1  UNL1        0.0904
     23 C         142.8672  144.8836  164.2396 C.3     1  UNL1        0.0395
     24 C         143.5762  143.6734  163.7078 C.ar    1  UNL1        0.0194
     25 C         144.6976  143.0569  164.4903 C.ar    1  UNL1        0.1373
     26 F         145.1101  143.6505  165.8046 F       1  UNL1       -0.2045
     27 C         145.4066  141.8467  163.9584 C.ar    1  UNL1        0.0294
     28 C         144.9942  141.2531  162.6440 C.ar    1  UNL1        0.0036
     29 C         143.8728  141.8697  161.8615 C.ar    1  UNL1        0.0147
     30 C         143.1638  143.0798  162.3934 C.ar    1  UNL1        0.0520
     31 N         142.0424  143.6964  161.6109 N.am    1  UNL1       -0.2588
@<TRIPOS>BOND
     1    20    21    2
     2    21    22    1
     3    22    23    1
     4    23    24    1
     5    24    25   ar
     6    25    26    1
     7    25    27   ar
     8    27    28   ar
     9    28    29   ar
    10    29    30   ar
    11    30    31    1
    12    31    19    1
    13    19    18    1
    14    18    17    1
    15    17     1    1
    16     1     2    1
    17     2     3    1
    18     3     4    1
    19     4     7    1
    20     7     8   am
    21     8     9    2
    22     8    10    1
    23    10    11    2
    24    11    12    1
    25    12    13    1
    26    13    14    2
    27    14    15    1
    28    15    16    2
    29     4     5    1
    30     5     6    1
    31    31    21   am
    32     6     1    1
    33    30    24   ar
    34    16     7    1
    35    16    11    1
@<TRIPOS>MOLECULE
*****
 31 35 0 0 0
SMALL
GASTEIGER

@<TRIPOS>ATOM
      1 N         139.1803  138.4164  162.2946 N.3     1  UNL1       -0.2725
      2 C         138.2174  139.4602  162.7776 C.3     1  UNL1        0.0738
      3 C         138.1562  139.8068  164.2358 C.3     1  UNL1        0.0376
      4 C         139.0579  139.1096  165.2109 C.3     1  UNL1        0.0841
      5 C         140.0209  138.0658  164.7278 C.3     1  UNL1        0.0376
      6 C         140.0821  137.7192  163.2697 C.3     1  UNL1        0.0738
      7 N         138.9967  139.4562  166.6690 N.am    1  UNL1       -0.2423
      8 C         138.0312  138.8930  167.6693 C.2     1  UNL1        0.3309
      9 O         136.9574  137.8844  167.3872 O.2     1  UNL1       -0.2501
     10 N         138.3281  139.5156  169.0013 N.am    1  UNL1       -0.1647
     11 C         139.4771  140.4635  168.8243 C.2     1  UNL1        0.0706
     12 C         140.2003  141.3553  169.7894 C.3     1  UNL1        0.0705
     13 C         141.3369  142.2105  169.3131 C.2     1  UNL1       -0.0199
     14 C         141.7502  142.1738  167.8715 C.2     1  UNL1       -0.0029
     15 C         141.0269  141.2819  166.9064 C.2     1  UNL1        0.0156
     16 C         139.8903  140.4268  167.3828 C.2     1  UNL1        0.0668
     17 C         139.2415  138.0698  160.8365 C.3     1  UNL1        0.0739
     18 C         139.4088  139.1546  159.8141 C.3     1  UNL1        0.0392
     19 C         140.6459  140.0029  159.8163 C.3     1  UNL1        0.0996
     20 O         139.0888  142.5003  160.3978 O.2     1  UNL1       -0.2745
     21 C         140.2047  142.0829  161.3092 C.2     1  UNL1        0.2297
     22 C         140.5419  142.9142  162.5114 C.3     1  UNL1        0.0904
     23 C         141.6577  142.4968  163.4228 C.3     1  UNL1        0.0395
     24 C         142.4364  141.2480  163.1320 C.ar    1  UNL1        0.0194
     25 C         143.5522  140.8306  164.0434 C.ar    1  UNL1        0.1373
     26 F         143.8894  141.6619  165.2456 F       1  UNL1       -0.2045
     27 C         144.3307  139.5819  163.7526 C.ar    1  UNL1        0.0294
     28 C         143.9935  138.7507  162.5505 C.ar    1  UNL1        0.0036
     29 C         142.8776  139.1680  161.6391 C.ar    1  UNL1        0.0147
     30 C         142.0991  140.4167  161.9299 C.ar    1  UNL1        0.0520
     31 N         140.9832  140.8342  161.0184 N.am    1  UNL1       -0.2588
@<TRIPOS>BOND
     1    20    21    2
     2    21    22    1
     3    22    23    1
     4    23    24    1
     5    24    25   ar
     6    25    26    1
     7    25    27   ar
     8    27    28   ar
     9    28    29   ar
    10    29    30   ar
    11    30    31    1
    12    31    19    1
    13    19    18    1
    14    18    17    1
    15    17     1    1
    16     1     2    1
    17     2     3    1
    18     3     4    1
    19     4     7    1
    20     7     8   am
    21     8     9    2
    22     8    10    1
    23    10    11    2
    24    11    12    1
    25    12    13    1
    26    13    14    2
    27    14    15    1
    28    15    16    2
    29     4     5    1
    30     5     6    1
    31    31    21   am
    32     6     1    1
    33    30    24   ar
    34    16     7    1
    35    16    11    1
@<TRIPOS>MOLECULE
*****
 31 35 0 0 0
SMALL
GASTEIGER

@<TRIPOS>ATOM
      1 N         142.1066  140.1746  162.2831 N.3     1  UNL1       -0.2725
      2 C         141.1170  139.3756  163.0782 C.3     1  UNL1        0.0738
      3 C         141.1805  139.3803  164.5769 C.3     1  UNL1        0.0376
      4 C         142.2337  140.1840  165.2804 C.3     1  UNL1        0.0841
      5 C         143.2234  140.9829  164.4852 C.3     1  UNL1        0.0376
      6 C         143.1598  140.9782  162.9866 C.3     1  UNL1        0.0738
      7 N         142.2973  140.1887  166.7790 N.am    1  UNL1       -0.2423
      8 C         143.0159  139.1875  167.6341 C.2     1  UNL1        0.3309
      9 O         143.7971  138.0059  167.1408 O.2     1  UNL1       -0.2501
     10 N         142.8161  139.5754  169.0692 N.am    1  UNL1       -0.1647
     11 C         141.9740  140.8164  169.1011 C.2     1  UNL1        0.0706
     12 C         141.4578  141.6501  170.2361 C.3     1  UNL1        0.0705
     13 C         140.6209  142.8630  169.9557 C.2     1  UNL1       -0.0199
     14 C         140.3002  143.2420  168.5402 C.2     1  UNL1       -0.0029
     15 C         140.8165  142.4082  167.4052 C.2     1  UNL1        0.0156
     16 C         141.6533  141.1954  167.6856 C.2     1  UNL1        0.0668
     17 C         142.0431  140.1699  160.7845 C.3     1  UNL1        0.0739
     18 C         140.7147  140.2254  160.0899 C.3     1  UNL1        0.0392
     19 C         139.8944  141.4803  160.1393 C.3     1  UNL1        0.0996
     20 O         137.3879  140.0779  161.0057 O.2     1  UNL1       -0.2745
     21 C         137.9598  141.1800  161.8472 C.2     1  UNL1        0.2297
     22 C         137.2785  141.5810  163.1220 C.3     1  UNL1        0.0904
     23 C         137.8504  142.6831  163.9636 C.3     1  UNL1        0.0395
     24 C         139.1037  143.3843  163.5304 C.ar    1  UNL1        0.0194
     25 C         139.6756  144.4864  164.3720 C.ar    1  UNL1        0.1373
     26 F         138.9943  144.8873  165.6468 F       1  UNL1       -0.2045
     27 C         140.9289  145.1875  163.9388 C.ar    1  UNL1        0.0294
     28 C         141.6102  144.7866  162.6640 C.ar    1  UNL1        0.0036
     29 C         141.0383  143.6845  161.8225 C.ar    1  UNL1        0.0147
     30 C         139.7851  142.9834  162.2557 C.ar    1  UNL1        0.0520
     31 N         139.2131  141.8812  161.4141 N.am    1  UNL1       -0.2588
@<TRIPOS>BOND
     1    20    21    2
     2    21    22    1
     3    22    23    1
     4    23    24    1
     5    24    25   ar
     6    25    26    1
     7    25    27   ar
     8    27    28   ar
     9    28    29   ar
    10    29    30   ar
    11    30    31    1
    12    31    19    1
    13    19    18    1
    14    18    17    1
    15    17     1    1
    16     1     2    1
    17     2     3    1
    18     3     4    1
    19     4     7    1
    20     7     8   am
    21     8     9    2
    22     8    10    1
    23    10    11    2
    24    11    12    1
    25    12    13    1
    26    13    14    2
    27    14    15    1
    28    15    16    2
    29     4     5    1
    30     5     6    1
    31    31    21   am
    32     6     1    1
    33    30    24   ar
    34    16     7    1
    35    16    11    1
@<TRIPOS>MOLECULE
*****
 31 35 0 0 0
SMALL
GASTEIGER

@<TRIPOS>ATOM
      1 N         141.4932  142.7252  167.1386 N.3     1  UNL1       -0.2725
      2 C         142.8610  142.4562  166.5848 C.3     1  UNL1        0.0738
      3 C         143.1055  142.5571  165.1083 C.3     1  UNL1        0.0376
      4 C         141.9821  142.9269  164.1856 C.3     1  UNL1        0.0841
      5 C         140.6142  143.1958  164.7395 C.3     1  UNL1        0.0376
      6 C         140.3698  143.0950  166.2159 C.3     1  UNL1        0.0738
      7 N         142.2266  143.0277  162.7091 N.am    1  UNL1       -0.2423
      8 C         143.1795  143.9701  162.0356 C.2     1  UNL1        0.3309
      9 O         144.0554  144.9771  162.7202 O.2     1  UNL1       -0.2501
     10 N         143.1029  143.7287  160.5571 N.am    1  UNL1       -0.1647
     11 C         142.1025  142.6371  160.3169 C.2     1  UNL1        0.0706
     12 C         141.6149  141.9817  159.0589 C.3     1  UNL1        0.0705
     13 C         140.5856  140.8929  159.1309 C.2     1  UNL1       -0.0199
     14 C         140.0439  140.4596  160.4610 C.2     1  UNL1       -0.0029
     15 C         140.5316  141.1151  161.7190 C.2     1  UNL1        0.0156
     16 C         141.5609  142.2038  161.6469 C.2     1  UNL1        0.0668
     17 C         141.2487  142.6244  168.6151 C.3     1  UNL1        0.0739
     18 C         140.1541  141.7405  169.1355 C.3     1  UNL1        0.0392
     19 C         140.2818  140.2494  169.0334 C.3     1  UNL1        0.0996
     20 O         143.1906  139.5811  169.3376 O.2     1  UNL1       -0.2745
     21 C         142.4888  139.3036  168.0412 C.2     1  UNL1        0.2297
     22 C         143.2414  138.6919  166.8969 C.3     1  UNL1        0.0904
     23 C         142.5397  138.4143  165.6006 C.3     1  UNL1        0.0395
     24 C         141.0853  138.7485  165.4485 C.ar    1  UNL1        0.0194
     25 C         140.3836  138.4709  164.1522 C.ar    1  UNL1        0.1373
     26 F         141.1362  137.8592  163.0079 F       1  UNL1       -0.2045
     27 C         138.9292  138.8051  164.0001 C.ar    1  UNL1        0.0294
     28 C         138.1766  139.4168  165.1444 C.ar    1  UNL1        0.0036
     29 C         138.8783  139.6943  166.4407 C.ar    1  UNL1        0.0147
     30 C         140.3327  139.3602  166.5928 C.ar    1  UNL1        0.0520
     31 N         141.0345  139.6377  167.8891 N.am    1  UNL1       -0.2588
@<TRIPOS>BOND
     1    20    21    2
     2    21    22    1
     3    22    23    1
     4    23    24    1
     5    24    25   ar
     6    25    26    1
     7    25    27   ar
     8    27    28   ar
     9    28    29   ar
    10    29    30   ar
    11    30    31    1
    12    31    19    1
    13    19    18    1
    14    18    17    1
    15    17     1    1
    16     1     2    1
    17     2     3    1
    18     3     4    1
    19     4     7    1
    20     7     8   am
    21     8     9    2
    22     8    10    1
    23    10    11    2
    24    11    12    1
    25    12    13    1
    26    13    14    2
    27    14    15    1
    28    15    16    2
    29     4     5    1
    30     5     6    1
    31    31    21   am
    32     6     1    1
    33    30    24   ar
    34    16     7    1
    35    16    11    1
@<TRIPOS>MOLECULE
*****
 31 35 0 0 0
SMALL
GASTEIGER

@<TRIPOS>ATOM
      1 N         142.3088  140.1455  162.9321 N.3     1  UNL1       -0.2725
      2 C         141.1095  140.9882  163.2508 C.3     1  UNL1        0.0738
      3 C         140.5012  140.9393  164.6211 C.3     1  UNL1        0.0376
      4 C         141.0921  140.0476  165.6726 C.3     1  UNL1        0.0841
      5 C         142.2914  139.2048  165.3538 C.3     1  UNL1        0.0376
      6 C         142.8997  139.2538  163.9836 C.3     1  UNL1        0.0738
      7 N         140.4838  139.9986  167.0428 N.am    1  UNL1       -0.2423
      8 C         139.0817  139.5784  167.3704 C.2     1  UNL1        0.3309
      9 O         138.0417  139.1334  166.3854 O.2     1  UNL1       -0.2501
     10 N         138.9021  139.6813  168.8561 N.am    1  UNL1       -0.1647
     11 C         140.1934  140.1652  169.4466 C.2     1  UNL1        0.0706
     12 C         140.6052  140.4525  170.8600 C.3     1  UNL1        0.0705
     13 C         141.9947  140.9359  171.1528 C.2     1  UNL1       -0.0199
     14 C         142.9723  141.1320  170.0321 C.2     1  UNL1       -0.0029
     15 C         142.5603  140.8447  168.6187 C.2     1  UNL1        0.0156
     16 C         141.1709  140.3613  168.3259 C.2     1  UNL1        0.0668
     17 C         142.9171  140.1945  161.5619 C.3     1  UNL1        0.0739
     18 C         144.3113  140.7166  161.3784 C.3     1  UNL1        0.0392
     19 C         144.5502  142.1930  161.2635 C.3     1  UNL1        0.0996
     20 O         144.9548  142.7645  164.1807 O.2     1  UNL1       -0.2745
     21 C         143.8469  143.4424  163.4302 C.2     1  UNL1        0.2297
     22 C         142.9414  144.4060  164.1383 C.3     1  UNL1        0.0904
     23 C         141.8335  145.0838  163.3879 C.3     1  UNL1        0.0395
     24 C         141.6312  144.7981  161.9293 C.ar    1  UNL1        0.0194
     25 C         140.5233  145.4760  161.1789 C.ar    1  UNL1        0.1373
     26 F         139.6178  146.4396  161.8870 F       1  UNL1       -0.2045
     27 C         140.3210  145.1902  159.7204 C.ar    1  UNL1        0.0294
     28 C         141.2266  144.2266  159.0122 C.ar    1  UNL1        0.0036
     29 C         142.3344  143.5487  159.7626 C.ar    1  UNL1        0.0147
     30 C         142.5367  143.8345  161.2212 C.ar    1  UNL1        0.0520
     31 N         143.6446  143.1566  161.9717 N.am    1  UNL1       -0.2588
@<TRIPOS>BOND
     1    20    21    2
     2    21    22    1
     3    22    23    1
     4    23    24    1
     5    24    25   ar
     6    25    26    1
     7    25    27   ar
     8    27    28   ar
     9    28    29   ar
    10    29    30   ar
    11    30    31    1
    12    31    19    1
    13    19    18    1
    14    18    17    1
    15    17     1    1
    16     1     2    1
    17     2     3    1
    18     3     4    1
    19     4     7    1
    20     7     8   am
    21     8     9    2
    22     8    10    1
    23    10    11    2
    24    11    12    1
    25    12    13    1
    26    13    14    2
    27    14    15    1
    28    15    16    2
    29     4     5    1
    30     5     6    1
    31    31    21   am
    32     6     1    1
    33    30    24   ar
    34    16     7    1
    35    16    11    1
@<TRIPOS>MOLECULE
*****
 31 35 0 0 0
SMALL
GASTEIGER

@<TRIPOS>ATOM
      1 N         141.5852  143.3899  163.0665 N.3     1  UNL1       -0.2725
      2 C         141.9559  141.9394  163.1600 C.3     1  UNL1        0.0738
      3 C         141.6143  141.1559  164.3927 C.3     1  UNL1        0.0376
      4 C         140.9020  141.8229  165.5319 C.3     1  UNL1        0.0841
      5 C         140.5313  143.2734  165.4384 C.3     1  UNL1        0.0376
      6 C         140.8729  144.0569  164.2057 C.3     1  UNL1        0.0738
      7 N         140.5603  141.0395  166.7645 N.am    1  UNL1       -0.2423
      8 C         139.3404  140.1886  166.9585 C.2     1  UNL1        0.3309
      9 O         138.2479  139.9717  165.9538 O.2     1  UNL1       -0.2501
     10 N         139.4047  139.5926  168.3335 N.am    1  UNL1       -0.1647
     11 C         140.6645  140.0752  168.9894 C.2     1  UNL1        0.0706
     12 C         141.2534  139.8159  170.3443 C.3     1  UNL1        0.0705
     13 C         142.5567  140.4508  170.7296 C.2     1  UNL1       -0.0199
     14 C         143.2709  141.3451  169.7599 C.2     1  UNL1       -0.0029
     15 C         142.6819  141.6044  168.4050 C.2     1  UNL1        0.0156
     16 C         141.3786  140.9694  168.0197 C.2     1  UNL1        0.0668
     17 C         141.9269  144.1733  161.8339 C.3     1  UNL1        0.0739
     18 C         140.8362  144.8040  161.0198 C.3     1  UNL1        0.0392
     19 C         139.8173  143.9421  160.3351 C.3     1  UNL1        0.0996
     20 O         137.8536  144.6865  162.4775 O.2     1  UNL1       -0.2745
     21 C         138.1219  143.2420  162.1751 C.2     1  UNL1        0.2297
     22 C         137.4083  142.1697  162.9439 C.3     1  UNL1        0.0904
     23 C         137.6766  140.7252  162.6415 C.3     1  UNL1        0.0395
     24 C         138.6584  140.3530  161.5703 C.ar    1  UNL1        0.0194
     25 C         138.9267  138.9085  161.2679 C.ar    1  UNL1        0.1373
     26 F         138.2131  137.8362  162.0367 F       1  UNL1       -0.2045
     27 C         139.9085  138.5363  160.1967 C.ar    1  UNL1        0.0294
     28 C         140.6221  139.6086  159.4280 C.ar    1  UNL1        0.0036
     29 C         140.3538  141.0530  159.7303 C.ar    1  UNL1        0.0147
     30 C         139.3720  141.4252  160.8015 C.ar    1  UNL1        0.0520
     31 N         139.1037  142.8698  161.1039 N.am    1  UNL1       -0.2588
@<TRIPOS>BOND
     1    20    21    2
     2    21    22    1
     3    22    23    1
     4    23    24    1
     5    24    25   ar
     6    25    26    1
     7    25    27   ar
     8    27    28   ar
     9    28    29   ar
    10    29    30   ar
    11    30    31    1
    12    31    19    1
    13    19    18    1
    14    18    17    1
    15    17     1    1
    16     1     2    1
    17     2     3    1
    18     3     4    1
    19     4     7    1
    20     7     8   am
    21     8     9    2
    22     8    10    1
    23    10    11    2
    24    11    12    1
    25    12    13    1
    26    13    14    2
    27    14    15    1
    28    15    16    2
    29     4     5    1
    30     5     6    1
    31    31    21   am
    32     6     1    1
    33    30    24   ar
    34    16     7    1
    35    16    11    1
