@<TRIPOS>MOLECULE
*****
 34 38 0 0 0
SMALL
GASTEIGER

@<TRIPOS>ATOM
      1 N         141.1313  138.6637  161.8693 N.3     1  UNL1       -0.2712
      2 C         141.8443  138.6461  160.5498 C.3     1  UNL1        0.0738
      3 C         142.7590  139.8340  160.5014 C.3     1  UNL1        0.0372
      4 C         143.7650  140.5573  159.6559 C.3     1  UNL1        0.0245
      5 C         144.2391  141.7560  160.4229 C.3     1  UNL1        0.0909
      6 N         143.5260  141.7736  161.7426 N.pl3   1  UNL1       -0.3077
      7 C         142.6113  140.5857  161.7910 C.3     1  UNL1        0.0901
      8 C         141.6053  139.8624  162.6365 C.3     1  UNL1        0.0921
      9 C         143.6975  142.7989  162.8239 C.ar    1  UNL1        0.0517
     10 C         143.1682  144.1890  162.6301 C.ar    1  UNL1        0.0145
     11 C         143.3397  145.2144  163.7114 C.ar    1  UNL1        0.0013
     12 C         144.0405  144.8497  164.9864 C.ar    1  UNL1        0.0000
     13 C         144.5699  143.4596  165.1803 C.ar    1  UNL1        0.0051
     14 C         144.3984  142.4342  164.0990 C.ar    1  UNL1        0.0847
     15 C         144.9277  141.0442  164.2927 C.3     1  UNL1        0.4197
     16 F         145.4570  139.6542  164.4865 F       1  UNL1       -0.1658
     17 F         143.6900  140.6796  165.0578 F       1  UNL1       -0.1658
     18 F         146.1654  141.4088  163.5277 F       1  UNL1       -0.1658
     19 C         140.1216  137.6590  162.3393 C.3     1  UNL1        0.0731
     20 C         138.8112  138.1207  162.9049 C.3     1  UNL1        0.0294
     21 C         138.7509  138.6861  164.2929 C.3     1  UNL1        0.0666
     22 S         138.3268  140.1091  164.5053 S.3     1  UNL1       -0.0756
     23 C         139.4854  139.9247  167.5505 C.3     1  UNL1        0.1340
     24 N         139.7993  140.9985  166.5513 N.ar    1  UNL1       -0.2884
     25 C         139.2667  141.0833  165.1516 C.ar    1  UNL1        0.1932
     26 N         139.8391  142.3132  164.5115 N.ar    1  UNL1       -0.1221
     27 N         140.7254  142.9886  165.5156 N.ar    1  UNL1       -0.1282
     28 C         140.7008  142.1761  166.7763 C.ar    1  UNL1        0.1683
     29 C         141.4468  142.4866  168.0401 C.ar    1  UNL1        0.0551
     30 C         142.8717  142.0453  168.1977 C.ar    1  UNL1        0.0062
     31 C         143.6176  142.3558  169.4615 C.ar    1  UNL1        0.0208
     32 C         142.9386  143.1078  170.5677 C.ar    1  UNL1        0.0989
     33 N         141.5137  143.5491  170.4101 N.ar    1  UNL1       -0.2422
     34 C         140.7678  143.2385  169.1462 C.ar    1  UNL1        0.1019
@<TRIPOS>BOND
     1    23    24    1
     2    24    25   ar
     3    25    22    1
     4    22    21    1
     5    21    20    1
     6    20    19    1
     7    19     1    1
     8     1     2    1
     9     2     3    1
    10     3     4    1
    11     4     5    1
    12     5     6    1
    13     6     9    1
    14     9    10   ar
    15    10    11   ar
    16    11    12   ar
    17    12    13   ar
    18    13    14   ar
    19    14    15    1
    20    15    16    1
    21    15    17    1
    22    15    18    1
    23     6     7    1
    24     7     8    1
    25    25    26   ar
    26    26    27   ar
    27    27    28   ar
    28    28    29    1
    29    29    30   ar
    30    30    31   ar
    31    31    32   ar
    32    32    33   ar
    33    33    34   ar
    34    28    24   ar
    35    34    29   ar
    36     8     1    1
    37     7     3    1
    38    14     9   ar
@<TRIPOS>MOLECULE
*****
 34 38 0 0 0
SMALL
GASTEIGER

@<TRIPOS>ATOM
      1 N         138.3109  140.6715  162.3895 N.3     1  UNL1       -0.2712
      2 C         137.2819  141.5966  162.9687 C.3     1  UNL1        0.0738
      3 C         137.9944  142.6145  163.8090 C.3     1  UNL1        0.0372
      4 C         137.7988  143.8153  164.6864 C.3     1  UNL1        0.0245
      5 C         139.1472  144.2616  165.1689 C.3     1  UNL1        0.0909
      6 N         140.1762  143.3364  164.5897 N.pl3   1  UNL1       -0.3077
      7 C         139.4637  142.3185  163.7493 C.3     1  UNL1        0.0901
      8 C         139.6593  141.1176  162.8720 C.3     1  UNL1        0.0921
      9 C         141.6575  143.4154  164.8119 C.ar    1  UNL1        0.0517
     10 C         142.2706  142.7673  166.0177 C.ar    1  UNL1        0.0145
     11 C         143.7520  142.8463  166.2400 C.ar    1  UNL1        0.0013
     12 C         144.6202  143.5733  165.2563 C.ar    1  UNL1        0.0000
     13 C         144.0071  144.2214  164.0504 C.ar    1  UNL1        0.0051
     14 C         142.5258  144.1424  163.8282 C.ar    1  UNL1        0.0847
     15 C         141.9127  144.7905  162.6224 C.3     1  UNL1        0.4197
     16 F         141.2996  145.4385  161.4165 F       1  UNL1       -0.1658
     17 F         142.1938  143.5570  161.8165 F       1  UNL1       -0.1658
     18 F         141.6316  146.0241  163.4282 F       1  UNL1       -0.1658
     19 C         138.0392  139.5050  161.4865 C.3     1  UNL1        0.0731
     20 C         138.6420  138.1654  161.7898 C.3     1  UNL1        0.0294
     21 C         138.5153  137.5798  163.1650 C.3     1  UNL1        0.0666
     22 S         139.6295  137.7440  164.1556 S.3     1  UNL1       -0.0756
     23 C         141.7694  139.4681  165.9158 C.3     1  UNL1        0.1340
     24 N         140.3466  139.1798  166.2933 N.ar    1  UNL1       -0.2884
     25 C         139.3630  138.3873  165.4842 C.ar    1  UNL1        0.1932
     26 N         138.0661  138.3510  166.2370 N.ar    1  UNL1       -0.1221
     27 N         138.2481  139.1210  167.5113 N.ar    1  UNL1       -0.1282
     28 C         139.6575  139.6333  167.5462 C.ar    1  UNL1        0.1683
     29 C         140.2703  140.4547  168.6415 C.ar    1  UNL1        0.0551
     30 C         140.1035  141.9454  168.6439 C.ar    1  UNL1        0.0062
     31 C         140.7163  142.7669  169.7392 C.ar    1  UNL1        0.0208
     32 C         141.4958  142.0975  170.8322 C.ar    1  UNL1        0.0989
     33 N         141.6626  140.6069  170.8298 N.ar    1  UNL1       -0.2422
     34 C         141.0498  139.7854  169.7344 C.ar    1  UNL1        0.1019
@<TRIPOS>BOND
     1    23    24    1
     2    24    25   ar
     3    25    22    1
     4    22    21    1
     5    21    20    1
     6    20    19    1
     7    19     1    1
     8     1     2    1
     9     2     3    1
    10     3     4    1
    11     4     5    1
    12     5     6    1
    13     6     9    1
    14     9    10   ar
    15    10    11   ar
    16    11    12   ar
    17    12    13   ar
    18    13    14   ar
    19    14    15    1
    20    15    16    1
    21    15    17    1
    22    15    18    1
    23     6     7    1
    24     7     8    1
    25    25    26   ar
    26    26    27   ar
    27    27    28   ar
    28    28    29    1
    29    29    30   ar
    30    30    31   ar
    31    31    32   ar
    32    32    33   ar
    33    33    34   ar
    34    28    24   ar
    35    34    29   ar
    36     8     1    1
    37     7     3    1
    38    14     9   ar
@<TRIPOS>MOLECULE
*****
 34 38 0 0 0
SMALL
GASTEIGER

@<TRIPOS>ATOM
      1 N         140.1949  144.9800  162.8446 N.3     1  UNL1       -0.2712
      2 C         139.3727  144.9688  164.0991 C.3     1  UNL1        0.0738
      3 C         139.9118  143.8949  164.9970 C.3     1  UNL1        0.0372
      4 C         139.7368  143.2243  166.3273 C.3     1  UNL1        0.0245
      5 C         140.7841  142.1573  166.4499 C.3     1  UNL1        0.0909
      6 N         141.6063  142.1686  165.1953 N.pl3   1  UNL1       -0.3077
      7 C         141.0672  143.2425  164.2974 C.3     1  UNL1        0.0901
      8 C         141.2422  143.9131  162.9672 C.3     1  UNL1        0.0921
      9 C         142.7643  141.2647  164.8920 C.ar    1  UNL1        0.0517
     10 C         142.5426  139.7899  164.7315 C.ar    1  UNL1        0.0145
     11 C         143.7006  138.8860  164.4281 C.ar    1  UNL1        0.0013
     12 C         145.0803  139.4569  164.2852 C.ar    1  UNL1        0.0000
     13 C         145.3021  140.9318  164.4457 C.ar    1  UNL1        0.0051
     14 C         144.1441  141.8357  164.7491 C.ar    1  UNL1        0.0847
     15 C         144.3658  143.3105  164.9096 C.3     1  UNL1        0.4197
     16 F         144.5875  144.7852  165.0701 F       1  UNL1       -0.1658
     17 F         144.2348  143.1683  166.3971 F       1  UNL1       -0.1658
     18 F         144.4968  143.4527  163.4221 F       1  UNL1       -0.1658
     19 C         140.0035  145.8971  161.6732 C.3     1  UNL1        0.0731
     20 C         140.5917  145.5431  160.3395 C.3     1  UNL1        0.0294
     21 C         139.8510  144.6251  159.4129 C.3     1  UNL1        0.0666
     22 S         139.9159  143.1406  159.6175 S.3     1  UNL1       -0.0756
     23 C         140.8622  140.5587  161.3748 C.3     1  UNL1        0.1340
     24 N         139.5784  141.3163  161.5419 N.ar    1  UNL1       -0.2884
     25 C         139.1434  142.5030  160.7342 C.ar    1  UNL1        0.1932
     26 N         137.8004  142.9404  161.2391 N.ar    1  UNL1       -0.1221
     27 N         137.4053  142.0239  162.3589 N.ar    1  UNL1       -0.1282
     28 C         138.5042  141.0201  162.5461 C.ar    1  UNL1        0.1683
     29 C         138.5251  139.9144  163.5595 C.ar    1  UNL1        0.0551
     30 C         138.1699  140.1999  164.9886 C.ar    1  UNL1        0.0062
     31 C         138.1908  139.0942  166.0019 C.ar    1  UNL1        0.0208
     32 C         138.5670  137.7029  165.5861 C.ar    1  UNL1        0.0989
     33 N         138.9222  137.4173  164.1570 N.ar    1  UNL1       -0.2422
     34 C         138.9013  138.5231  163.1437 C.ar    1  UNL1        0.1019
@<TRIPOS>BOND
     1    23    24    1
     2    24    25   ar
     3    25    22    1
     4    22    21    1
     5    21    20    1
     6    20    19    1
     7    19     1    1
     8     1     2    1
     9     2     3    1
    10     3     4    1
    11     4     5    1
    12     5     6    1
    13     6     9    1
    14     9    10   ar
    15    10    11   ar
    16    11    12   ar
    17    12    13   ar
    18    13    14   ar
    19    14    15    1
    20    15    16    1
    21    15    17    1
    22    15    18    1
    23     6     7    1
    24     7     8    1
    25    25    26   ar
    26    26    27   ar
    27    27    28   ar
    28    28    29    1
    29    29    30   ar
    30    30    31   ar
    31    31    32   ar
    32    32    33   ar
    33    33    34   ar
    34    28    24   ar
    35    34    29   ar
    36     8     1    1
    37     7     3    1
    38    14     9   ar
@<TRIPOS>MOLECULE
*****
 34 38 0 0 0
SMALL
GASTEIGER

@<TRIPOS>ATOM
      1 N         141.8841  143.2831  162.4171 N.3     1  UNL1       -0.2712
      2 C         140.8228  143.6815  161.4348 C.3     1  UNL1        0.0738
      3 C         139.6450  142.7738  161.6314 C.3     1  UNL1        0.0372
      4 C         138.2611  142.4589  161.1458 C.3     1  UNL1        0.0245
      5 C         137.7391  141.3049  161.9495 C.3     1  UNL1        0.0909
      6 N         138.8004  140.9066  162.9318 N.pl3   1  UNL1       -0.3077
      7 C         139.9783  141.8143  162.7352 C.3     1  UNL1        0.0901
      8 C         141.3621  142.1292  163.2209 C.3     1  UNL1        0.0921
      9 C         138.7013  139.7955  163.9347 C.ar    1  UNL1        0.0517
     10 C         138.0373  140.0366  165.2579 C.ar    1  UNL1        0.0145
     11 C         137.9381  138.9255  166.2608 C.ar    1  UNL1        0.0013
     12 C         138.5029  137.5734  165.9404 C.ar    1  UNL1        0.0000
     13 C         139.1670  137.3323  164.6171 C.ar    1  UNL1        0.0051
     14 C         139.2662  138.4433  163.6143 C.ar    1  UNL1        0.0847
     15 C         139.9302  138.2023  162.2911 C.3     1  UNL1        0.4197
     16 F         140.5942  137.9612  160.9679 F       1  UNL1       -0.1658
     17 F         141.2513  138.5960  162.8823 F       1  UNL1       -0.1658
     18 F         138.6090  137.8085  161.6998 F       1  UNL1       -0.1658
     19 C         143.2308  143.9259  162.5691 C.3     1  UNL1        0.0731
     20 C         144.4279  143.3282  161.8911 C.3     1  UNL1        0.0294
     21 C         144.8244  141.9109  162.1810 C.3     1  UNL1        0.0666
     22 S         145.3560  141.5427  163.5344 S.3     1  UNL1       -0.0756
     23 C         143.6374  142.6066  166.0964 C.3     1  UNL1        0.1340
     24 N         143.7432  141.1831  165.6355 N.ar    1  UNL1       -0.2884
     25 C         144.5331  140.6941  164.4578 C.ar    1  UNL1        0.1932
     26 N         144.3558  139.2075  164.3657 N.ar    1  UNL1       -0.1221
     27 N         143.4562  138.7777  165.4865 N.ar    1  UNL1       -0.1282
     28 C         143.0775  139.9987  166.2713 C.ar    1  UNL1        0.1683
     29 C         142.1893  140.0298  167.4796 C.ar    1  UNL1        0.0551
     30 C         140.8551  140.7120  167.4123 C.ar    1  UNL1        0.0062
     31 C         139.9669  140.7431  168.6206 C.ar    1  UNL1        0.0208
     32 C         140.4129  140.0919  169.8963 C.ar    1  UNL1        0.0989
     33 N         141.7471  139.4098  169.9636 N.ar    1  UNL1       -0.2422
     34 C         142.6353  139.3787  168.7551 C.ar    1  UNL1        0.1019
@<TRIPOS>BOND
     1    23    24    1
     2    24    25   ar
     3    25    22    1
     4    22    21    1
     5    21    20    1
     6    20    19    1
     7    19     1    1
     8     1     2    1
     9     2     3    1
    10     3     4    1
    11     4     5    1
    12     5     6    1
    13     6     9    1
    14     9    10   ar
    15    10    11   ar
    16    11    12   ar
    17    12    13   ar
    18    13    14   ar
    19    14    15    1
    20    15    16    1
    21    15    17    1
    22    15    18    1
    23     6     7    1
    24     7     8    1
    25    25    26   ar
    26    26    27   ar
    27    27    28   ar
    28    28    29    1
    29    29    30   ar
    30    30    31   ar
    31    31    32   ar
    32    32    33   ar
    33    33    34   ar
    34    28    24   ar
    35    34    29   ar
    36     8     1    1
    37     7     3    1
    38    14     9   ar
@<TRIPOS>MOLECULE
*****
 34 38 0 0 0
SMALL
GASTEIGER

@<TRIPOS>ATOM
      1 N         141.8337  138.2851  162.7311 N.3     1  UNL1       -0.2712
      2 C         141.0501  137.3348  163.5872 C.3     1  UNL1        0.0738
      3 C         140.0435  138.1319  164.3626 C.3     1  UNL1        0.0372
      4 C         138.9370  138.0372  165.3710 C.3     1  UNL1        0.0245
      5 C         138.4147  139.4216  165.6174 C.3     1  UNL1        0.0909
      6 N         139.1984  140.3719  164.7613 N.pl3   1  UNL1       -0.3077
      7 C         140.2050  139.5748  163.9858 C.3     1  UNL1        0.0901
      8 C         141.3114  139.6695  162.9775 C.3     1  UNL1        0.0921
      9 C         139.0087  141.8583  164.6927 C.ar    1  UNL1        0.0517
     10 C         139.5266  142.7322  165.7963 C.ar    1  UNL1        0.0145
     11 C         139.3370  144.2186  165.7277 C.ar    1  UNL1        0.0013
     12 C         138.6294  144.8311  164.5555 C.ar    1  UNL1        0.0000
     13 C         138.1114  143.9572  163.4518 C.ar    1  UNL1        0.0051
     14 C         138.3010  142.4708  163.5204 C.ar    1  UNL1        0.0847
     15 C         137.7831  141.5969  162.4168 C.3     1  UNL1        0.4197
     16 F         137.2651  140.7230  161.3132 F       1  UNL1       -0.1658
     17 F         138.9978  141.9137  161.5959 F       1  UNL1       -0.1658
     18 F         136.5683  141.2801  163.2378 F       1  UNL1       -0.1658
     19 C         142.9446  137.9158  161.7933 C.3     1  UNL1        0.0731
     20 C         144.0942  138.8566  161.5851 C.3     1  UNL1        0.0294
     21 C         144.2653  140.0431  162.4867 C.3     1  UNL1        0.0666
     22 S         144.9409  139.8834  163.8164 S.3     1  UNL1       -0.0756
     23 C         143.2263  142.2106  165.3309 C.3     1  UNL1        0.1340
     24 N         143.3310  140.7755  165.7548 N.ar    1  UNL1       -0.2884
     25 C         144.1191  139.7058  165.0586 C.ar    1  UNL1        0.1932
     26 N         143.9412  138.4273  165.8228 N.ar    1  UNL1       -0.1221
     27 N         143.0431  138.7069  166.9912 N.ar    1  UNL1       -0.1282
     28 C         142.6659  140.1581  166.9492 C.ar    1  UNL1        0.1683
     29 C         141.7794  140.8675  167.9295 C.ar    1  UNL1        0.0551
     30 C         142.1599  142.2264  168.4380 C.ar    1  UNL1        0.0062
     31 C         141.2734  142.9357  169.4183 C.ar    1  UNL1        0.0208
     32 C         140.0064  142.2860  169.8901 C.ar    1  UNL1        0.0989
     33 N         139.6259  140.9270  169.3817 N.ar    1  UNL1       -0.2422
     34 C         140.5125  140.2178  168.4014 C.ar    1  UNL1        0.1019
@<TRIPOS>BOND
     1    23    24    1
     2    24    25   ar
     3    25    22    1
     4    22    21    1
     5    21    20    1
     6    20    19    1
     7    19     1    1
     8     1     2    1
     9     2     3    1
    10     3     4    1
    11     4     5    1
    12     5     6    1
    13     6     9    1
    14     9    10   ar
    15    10    11   ar
    16    11    12   ar
    17    12    13   ar
    18    13    14   ar
    19    14    15    1
    20    15    16    1
    21    15    17    1
    22    15    18    1
    23     6     7    1
    24     7     8    1
    25    25    26   ar
    26    26    27   ar
    27    27    28   ar
    28    28    29    1
    29    29    30   ar
    30    30    31   ar
    31    31    32   ar
    32    32    33   ar
    33    33    34   ar
    34    28    24   ar
    35    34    29   ar
    36     8     1    1
    37     7     3    1
    38    14     9   ar
@<TRIPOS>MOLECULE
*****
 34 38 0 0 0
SMALL
GASTEIGER

@<TRIPOS>ATOM
      1 N         141.1749  138.1131  163.6100 N.3     1  UNL1       -0.2712
      2 C         139.6994  138.0087  163.8592 C.3     1  UNL1        0.0738
      3 C         139.4080  138.6404  165.1881 C.3     1  UNL1        0.0372
      4 C         138.3160  138.9664  166.1635 C.3     1  UNL1        0.0245
      5 C         138.9364  139.6625  167.3384 C.3     1  UNL1        0.0909
      6 N         140.4120  139.7668  167.0892 N.pl3   1  UNL1       -0.3077
      7 C         140.7034  139.1351  165.7603 C.3     1  UNL1        0.0901
      8 C         141.7954  138.8092  164.7849 C.3     1  UNL1        0.0921
      9 C         141.4192  140.3929  168.0077 C.ar    1  UNL1        0.0517
     10 C         141.8634  139.6649  169.2416 C.ar    1  UNL1        0.0145
     11 C         142.8706  140.2910  170.1601 C.ar    1  UNL1        0.0013
     12 C         143.4336  141.6451  169.8446 C.ar    1  UNL1        0.0000
     13 C         142.9894  142.3731  168.6106 C.ar    1  UNL1        0.0051
     14 C         141.9821  141.7470  167.6921 C.ar    1  UNL1        0.0847
     15 C         141.5379  142.4750  166.4582 C.3     1  UNL1        0.4197
     16 F         141.0936  143.2030  165.2243 F       1  UNL1       -0.1658
     17 F         140.3241  142.9701  167.1873 F       1  UNL1       -0.1658
     18 F         142.7518  141.9800  165.7291 F       1  UNL1       -0.1658
     19 C         141.9022  137.6096  162.3986 C.3     1  UNL1        0.0731
     20 C         143.2859  138.1031  162.0956 C.3     1  UNL1        0.0294
     21 C         143.6746  138.4261  160.6833 C.3     1  UNL1        0.0666
     22 S         143.2114  139.7054  160.0518 S.3     1  UNL1       -0.0756
     23 C         142.5479  141.7194  162.5323 C.3     1  UNL1        0.1340
     24 N         141.5584  141.1921  161.5359 N.ar    1  UNL1       -0.2884
     25 C         141.8634  140.2663  160.3957 C.ar    1  UNL1        0.1932
     26 N         140.5838  140.0000  159.6598 N.ar    1  UNL1       -0.1221
     27 N         139.4879  140.7611  160.3451 N.ar    1  UNL1       -0.1282
     28 C         140.0902  141.4979  161.5046 C.ar    1  UNL1        0.1683
     29 C         139.3537  142.3848  162.4643 C.ar    1  UNL1        0.0551
     30 C         138.5805  141.7824  163.5998 C.ar    1  UNL1        0.0062
     31 C         137.8440  142.6693  164.5595 C.ar    1  UNL1        0.0208
     32 C         137.8807  144.1585  164.3836 C.ar    1  UNL1        0.0989
     33 N         138.6539  144.7609  163.2481 N.ar    1  UNL1       -0.2422
     34 C         139.3904  143.8739  162.2885 C.ar    1  UNL1        0.1019
@<TRIPOS>BOND
     1    23    24    1
     2    24    25   ar
     3    25    22    1
     4    22    21    1
     5    21    20    1
     6    20    19    1
     7    19     1    1
     8     1     2    1
     9     2     3    1
    10     3     4    1
    11     4     5    1
    12     5     6    1
    13     6     9    1
    14     9    10   ar
    15    10    11   ar
    16    11    12   ar
    17    12    13   ar
    18    13    14   ar
    19    14    15    1
    20    15    16    1
    21    15    17    1
    22    15    18    1
    23     6     7    1
    24     7     8    1
    25    25    26   ar
    26    26    27   ar
    27    27    28   ar
    28    28    29    1
    29    29    30   ar
    30    30    31   ar
    31    31    32   ar
    32    32    33   ar
    33    33    34   ar
    34    28    24   ar
    35    34    29   ar
    36     8     1    1
    37     7     3    1
    38    14     9   ar
@<TRIPOS>MOLECULE
*****
 34 38 0 0 0
SMALL
GASTEIGER

@<TRIPOS>ATOM
      1 N         138.3987  142.7785  163.2812 N.3     1  UNL1       -0.2712
      2 C         137.9311  141.5480  162.5620 C.3     1  UNL1        0.0738
      3 C         138.4070  140.3521  163.3323 C.3     1  UNL1        0.0372
      4 C         138.4120  138.8524  163.3639 C.3     1  UNL1        0.0245
      5 C         139.1768  138.4169  164.5786 C.3     1  UNL1        0.0909
      6 N         139.6444  139.6475  165.2978 N.pl3   1  UNL1       -0.3077
      7 C         139.1686  140.8435  164.5275 C.3     1  UNL1        0.0901
      8 C         139.1635  142.3431  164.4959 C.3     1  UNL1        0.0921
      9 C         140.4469  139.6770  166.5647 C.ar    1  UNL1        0.0517
     10 C         139.7743  139.9753  167.8718 C.ar    1  UNL1        0.0145
     11 C         140.5768  140.0047  169.1387 C.ar    1  UNL1        0.0013
     12 C         142.0519  139.7358  169.0986 C.ar    1  UNL1        0.0000
     13 C         142.7246  139.4374  167.7915 C.ar    1  UNL1        0.0051
     14 C         141.9221  139.4080  166.5245 C.ar    1  UNL1        0.0847
     15 C         142.5947  139.1097  165.2174 C.3     1  UNL1        0.4197
     16 F         143.2674  138.8114  163.9103 F       1  UNL1       -0.1658
     17 F         142.4716  137.6398  165.4896 F       1  UNL1       -0.1658
     18 F         142.7179  140.5797  164.9452 F       1  UNL1       -0.1658
     19 C         138.1459  144.1957  162.8596 C.3     1  UNL1        0.0731
     20 C         139.2546  145.2045  162.9172 C.3     1  UNL1        0.0294
     21 C         139.5732  146.0386  161.7119 C.3     1  UNL1        0.0666
     22 S         140.5858  145.5593  160.7145 S.3     1  UNL1       -0.0756
     23 C         140.0842  142.4792  159.7601 C.3     1  UNL1        0.1340
     24 N         141.2278  142.9671  160.5992 N.ar    1  UNL1       -0.2884
     25 C         141.4583  144.3828  161.0379 C.ar    1  UNL1        0.1932
     26 N         142.7146  144.4157  161.8568 N.ar    1  UNL1       -0.1221
     27 N         143.2606  143.0201  161.9243 N.ar    1  UNL1       -0.1282
     28 C         142.3417  142.1248  161.1470 C.ar    1  UNL1        0.1683
     29 C         142.5075  140.6468  160.9518 C.ar    1  UNL1        0.0551
     30 C         141.4279  139.7057  161.3976 C.ar    1  UNL1        0.0062
     31 C         141.5938  138.2277  161.2024 C.ar    1  UNL1        0.0208
     32 C         142.8393  137.6910  160.5614 C.ar    1  UNL1        0.0989
     33 N         143.9188  138.6321  160.1157 N.ar    1  UNL1       -0.2422
     34 C         143.7529  140.1101  160.3109 C.ar    1  UNL1        0.1019
@<TRIPOS>BOND
     1    23    24    1
     2    24    25   ar
     3    25    22    1
     4    22    21    1
     5    21    20    1
     6    20    19    1
     7    19     1    1
     8     1     2    1
     9     2     3    1
    10     3     4    1
    11     4     5    1
    12     5     6    1
    13     6     9    1
    14     9    10   ar
    15    10    11   ar
    16    11    12   ar
    17    12    13   ar
    18    13    14   ar
    19    14    15    1
    20    15    16    1
    21    15    17    1
    22    15    18    1
    23     6     7    1
    24     7     8    1
    25    25    26   ar
    26    26    27   ar
    27    27    28   ar
    28    28    29    1
    29    29    30   ar
    30    30    31   ar
    31    31    32   ar
    32    32    33   ar
    33    33    34   ar
    34    28    24   ar
    35    34    29   ar
    36     8     1    1
    37     7     3    1
    38    14     9   ar
@<TRIPOS>MOLECULE
*****
 34 38 0 0 0
SMALL
GASTEIGER

@<TRIPOS>ATOM
      1 N         143.7597  140.9559  162.4787 N.3     1  UNL1       -0.2712
      2 C         144.7190  142.1068  162.5502 C.3     1  UNL1        0.0738
      3 C         143.9450  143.3320  162.9374 C.3     1  UNL1        0.0372
      4 C         144.0596  144.8005  163.2209 C.3     1  UNL1        0.0245
      5 C         142.6927  145.3144  163.5640 C.3     1  UNL1        0.0909
      6 N         141.7334  144.1634  163.4925 N.pl3   1  UNL1       -0.3077
      7 C         142.5074  142.9383  163.1052 C.3     1  UNL1        0.0901
      8 C         142.3928  141.4698  162.8217 C.3     1  UNL1        0.0921
      9 C         140.2590  144.2266  163.7611 C.ar    1  UNL1        0.0517
     10 C         139.7588  144.3884  165.1659 C.ar    1  UNL1        0.0145
     11 C         138.2844  144.4516  165.4345 C.ar    1  UNL1        0.0013
     12 C         137.3102  144.3530  164.2982 C.ar    1  UNL1        0.0000
     13 C         137.8103  144.1911  162.8933 C.ar    1  UNL1        0.0051
     14 C         139.2847  144.1280  162.6247 C.ar    1  UNL1        0.0847
     15 C         139.7849  143.9661  161.2199 C.3     1  UNL1        0.4197
     16 F         140.2851  143.8043  159.8151 F       1  UNL1       -0.1658
     17 F         140.0318  145.4434  161.1377 F       1  UNL1       -0.1658
     18 F         139.5380  142.4888  161.3021 F       1  UNL1       -0.1658
     19 C         144.1063  139.5398  162.1260 C.3     1  UNL1        0.0731
     20 C         143.5326  138.4064  162.9236 C.3     1  UNL1        0.0294
     21 C         142.0692  138.0900  162.8322 C.3     1  UNL1        0.0666
     22 S         141.3689  137.4389  163.9879 S.3     1  UNL1       -0.0756
     23 C         142.4673  139.2981  166.4347 C.3     1  UNL1        0.1340
     24 N         141.0313  139.1182  166.0400 N.ar    1  UNL1       -0.2884
     25 C         140.5265  138.2636  164.9153 C.ar    1  UNL1        0.1932
     26 N         139.0313  138.3785  164.8809 N.ar    1  UNL1       -0.1221
     27 N         138.6120  139.3041  165.9843 N.ar    1  UNL1       -0.1282
     28 C         139.8481  139.7613  166.7007 C.ar    1  UNL1        0.1683
     29 C         139.8931  140.6972  167.8721 C.ar    1  UNL1        0.0551
     30 C         140.5348  142.0455  167.7306 C.ar    1  UNL1        0.0062
     31 C         140.5798  142.9814  168.9020 C.ar    1  UNL1        0.0208
     32 C         139.9829  142.5688  170.2149 C.ar    1  UNL1        0.0989
     33 N         139.3411  141.2205  170.3564 N.ar    1  UNL1       -0.2422
     34 C         139.2962  140.2846  169.1849 C.ar    1  UNL1        0.1019
@<TRIPOS>BOND
     1    23    24    1
     2    24    25   ar
     3    25    22    1
     4    22    21    1
     5    21    20    1
     6    20    19    1
     7    19     1    1
     8     1     2    1
     9     2     3    1
    10     3     4    1
    11     4     5    1
    12     5     6    1
    13     6     9    1
    14     9    10   ar
    15    10    11   ar
    16    11    12   ar
    17    12    13   ar
    18    13    14   ar
    19    14    15    1
    20    15    16    1
    21    15    17    1
    22    15    18    1
    23     6     7    1
    24     7     8    1
    25    25    26   ar
    26    26    27   ar
    27    27    28   ar
    28    28    29    1
    29    29    30   ar
    30    30    31   ar
    31    31    32   ar
    32    32    33   ar
    33    33    34   ar
    34    28    24   ar
    35    34    29   ar
    36     8     1    1
    37     7     3    1
    38    14     9   ar
@<TRIPOS>MOLECULE
*****
 34 38 0 0 0
SMALL
GASTEIGER

@<TRIPOS>ATOM
      1 N         138.7509  140.9581  160.7071 N.3     1  UNL1       -0.2712
      2 C         138.6203  142.1334  159.7843 C.3     1  UNL1        0.0738
      3 C         139.7528  143.0748  160.0697 C.3     1  UNL1        0.0372
      4 C         140.3720  144.3830  159.6757 C.3     1  UNL1        0.0245
      5 C         141.5851  144.5980  160.5314 C.3     1  UNL1        0.0909
      6 N         141.7157  143.4225  161.4542 N.pl3   1  UNL1       -0.3077
      7 C         140.5832  142.4812  161.1688 C.3     1  UNL1        0.0901
      8 C         139.9640  141.1730  161.5627 C.3     1  UNL1        0.0921
      9 C         142.7900  143.2235  162.4818 C.ar    1  UNL1        0.0517
     10 C         144.0801  142.5607  162.0995 C.ar    1  UNL1        0.0145
     11 C         145.1545  142.3616  163.1271 C.ar    1  UNL1        0.0013
     12 C         144.9387  142.8254  164.5372 C.ar    1  UNL1        0.0000
     13 C         143.6486  143.4882  164.9197 C.ar    1  UNL1        0.0051
     14 C         142.5742  143.6873  163.8920 C.ar    1  UNL1        0.0847
     15 C         141.2841  144.3501  164.2744 C.3     1  UNL1        0.4197
     16 F         139.9940  145.0129  164.6568 F       1  UNL1       -0.1658
     17 F         140.7031  143.0138  164.6303 F       1  UNL1       -0.1658
     18 F         141.8652  145.6865  163.9184 F       1  UNL1       -0.1658
     19 C         137.8300  139.7754  160.7642 C.3     1  UNL1        0.0731
     20 C         137.7488  138.9477  162.0125 C.3     1  UNL1        0.0294
     21 C         138.8575  137.9973  162.3557 C.3     1  UNL1        0.0666
     22 S         139.1233  137.6411  163.7883 S.3     1  UNL1       -0.0756
     23 C         137.9057  138.9283  166.5288 C.3     1  UNL1        0.1340
     24 N         139.2592  139.2111  165.9474 N.ar    1  UNL1       -0.2884
     25 C         139.8189  138.6195  164.6877 C.ar    1  UNL1        0.1932
     26 N         141.1962  139.1780  164.4853 N.ar    1  UNL1       -0.1221
     27 N         141.4879  140.1148  165.6199 N.ar    1  UNL1       -0.1282
     28 C         140.2907  140.1353  166.5235 C.ar    1  UNL1        0.1683
     29 C         140.1498  140.9389  167.7823 C.ar    1  UNL1        0.0551
     30 C         140.5872  142.3735  167.8091 C.ar    1  UNL1        0.0062
     31 C         140.4463  143.1771  169.0679 C.ar    1  UNL1        0.0208
     32 C         139.8680  142.5460  170.2997 C.ar    1  UNL1        0.0989
     33 N         139.4307  141.1114  170.2729 N.ar    1  UNL1       -0.2422
     34 C         139.5716  140.3079  169.0141 C.ar    1  UNL1        0.1019
@<TRIPOS>BOND
     1    23    24    1
     2    24    25   ar
     3    25    22    1
     4    22    21    1
     5    21    20    1
     6    20    19    1
     7    19     1    1
     8     1     2    1
     9     2     3    1
    10     3     4    1
    11     4     5    1
    12     5     6    1
    13     6     9    1
    14     9    10   ar
    15    10    11   ar
    16    11    12   ar
    17    12    13   ar
    18    13    14   ar
    19    14    15    1
    20    15    16    1
    21    15    17    1
    22    15    18    1
    23     6     7    1
    24     7     8    1
    25    25    26   ar
    26    26    27   ar
    27    27    28   ar
    28    28    29    1
    29    29    30   ar
    30    30    31   ar
    31    31    32   ar
    32    32    33   ar
    33    33    34   ar
    34    28    24   ar
    35    34    29   ar
    36     8     1    1
    37     7     3    1
    38    14     9   ar
