@<TRIPOS>MOLECULE
*****
 28 31 0 0 0
SMALL
GASTEIGER

@<TRIPOS>ATOM
      1 C         140.5777  141.4729  167.6451 C.ar    1  UNL1        0.0985
      2 C         139.6855  140.2988  167.3700 C.ar    1  UNL1        0.1003
      3 N         139.0212  139.9098  168.6573 N.ar    1  UNL1       -0.2239
      4 C         139.5028  140.8434  169.7281 C.ar    1  UNL1        0.1786
      5 N         140.4648  141.8094  169.1024 N.ar    1  UNL1       -0.3052
      6 C         141.3042  144.5089  163.3232 C.ar    1  UNL1        0.1713
      7 C         142.5865  144.9629  162.6912 C.ar    1  UNL1        0.1302
      8 N         143.7228  144.4074  163.4976 N.ar    1  UNL1       -0.2227
      9 C         143.1427  143.6101  164.6279 C.ar    1  UNL1        0.1647
     10 C         143.7825  142.8350  165.7414 C.ar    1  UNL1        0.0405
     11 C         142.9275  142.1226  166.7471 C.ar    1  UNL1        0.0255
     12 C         141.4327  142.1853  166.6393 C.ar    1  UNL1        0.1187
     13 N         140.7929  142.9604  165.5258 N.ar    1  UNL1       -0.1616
     14 N         141.6479  143.6727  164.5201 N.ar    1  UNL1       -0.2010
     15 N         138.5377  145.1589  162.3619 N.1     1  UNL1       -0.1892
     16 C         139.9209  144.8338  162.8426 C.1     1  UNL1        0.1215
     17 C         139.4917  139.6311  166.0409 C.ar    1  UNL1        0.0202
     18 C         138.3363  140.0205  165.1672 C.ar    1  UNL1        0.0039
     19 C         138.1425  139.3528  163.8381 C.ar    1  UNL1        0.0306
     20 C         139.1041  138.2955  163.3826 C.ar    1  UNL1        0.1506
     21 F         138.9103  137.6278  162.0535 F       1  UNL1       -0.2033
     22 C         140.2597  137.9060  164.2563 C.ar    1  UNL1        0.0851
     23 CL        141.2212  136.8488  163.8008 Cl      1  UNL1       -0.0799
     24 C         140.4533  138.5738  165.5854 C.ar    1  UNL1        0.0152
     25 C         141.1870  142.9175  169.8100 C.3     1  UNL1        0.1393
     26 C         142.3784  142.6088  170.6674 C.3     1  UNL1        0.1616
     27 O         142.1896  142.2385  172.1086 O.3     1  UNL1       -0.3799
     28 H         141.8332  142.9990  172.5939 H       1  UNL1        0.2105
@<TRIPOS>BOND
     1    15    16    3
     2    16     6    1
     3     6     7   ar
     4     7     8   ar
     5     8     9   ar
     6     9    10   ar
     7    10    11   ar
     8    11    12   ar
     9    12     1    1
    10     1     2   ar
    11     2    17    1
    12    17    18   ar
    13    18    19   ar
    14    19    20   ar
    15    20    21    1
    16    20    22   ar
    17    22    23    1
    18    22    24   ar
    19     2     3   ar
    20     3     4   ar
    21     4     5   ar
    22     5    25    1
    23    25    26    1
    24    26    27    1
    25    12    13   ar
    26    13    14   ar
    27    14     6   ar
    28    14     9   ar
    29     5     1   ar
    30    24    17   ar
    31    27    28    1
@<TRIPOS>MOLECULE
*****
 28 31 0 0 0
SMALL
GASTEIGER

@<TRIPOS>ATOM
      1 C         141.1383  139.9878  167.2778 C.ar    1  UNL1        0.0985
      2 C         139.7218  139.6484  166.9194 C.ar    1  UNL1        0.1003
      3 N         138.9126  139.6432  168.1824 N.ar    1  UNL1       -0.2239
      4 C         139.8290  139.9795  169.3214 C.ar    1  UNL1        0.1786
      5 N         141.2045  140.1924  168.7623 N.ar    1  UNL1       -0.3052
      6 C         144.2342  142.6726  163.8674 C.ar    1  UNL1        0.1713
      7 C         145.4210  142.1906  163.0869 C.ar    1  UNL1        0.1302
      8 N         145.6372  140.7438  163.4186 N.ar    1  UNL1       -0.2227
      9 C         144.5840  140.3317  164.4040 C.ar    1  UNL1        0.1647
     10 C         144.3026  139.0249  165.0846 C.ar    1  UNL1        0.0405
     11 C         143.1540  138.9103  166.0425 C.ar    1  UNL1        0.0255
     12 C         142.2869  140.1025  166.3198 C.ar    1  UNL1        0.1187
     13 N         142.5683  141.4092  165.6393 N.ar    1  UNL1       -0.1616
     14 N         143.7169  141.5238  164.6814 N.ar    1  UNL1       -0.2010
     15 N         143.0950  145.4474  163.8104 N.1     1  UNL1       -0.1892
     16 C         143.6646  144.0600  163.8389 C.1     1  UNL1        0.1215
     17 C         139.2053  139.3640  165.5402 C.ar    1  UNL1        0.0202
     18 C         139.3757  137.9991  164.9421 C.ar    1  UNL1        0.0039
     19 C         138.8591  137.7147  163.5628 C.ar    1  UNL1        0.0306
     20 C         138.1721  138.7953  162.7817 C.ar    1  UNL1        0.1506
     21 F         137.6555  138.5110  161.4025 F       1  UNL1       -0.2033
     22 C         138.0016  140.1604  163.3798 C.ar    1  UNL1        0.0851
     23 CL        137.3145  141.2410  162.5987 Cl      1  UNL1       -0.0799
     24 C         138.5182  140.4446  164.7591 C.ar    1  UNL1        0.0152
     25 C         142.4309  140.5477  169.5495 C.3     1  UNL1        0.1393
     26 C         142.3100  141.3801  170.7914 C.3     1  UNL1        0.1616
     27 O         142.2614  140.7180  172.1365 O.3     1  UNL1       -0.3799
     28 H         141.4470  140.1964  172.2109 H       1  UNL1        0.2105
@<TRIPOS>BOND
     1    15    16    3
     2    16     6    1
     3     6     7   ar
     4     7     8   ar
     5     8     9   ar
     6     9    10   ar
     7    10    11   ar
     8    11    12   ar
     9    12     1    1
    10     1     2   ar
    11     2    17    1
    12    17    18   ar
    13    18    19   ar
    14    19    20   ar
    15    20    21    1
    16    20    22   ar
    17    22    23    1
    18    22    24   ar
    19     2     3   ar
    20     3     4   ar
    21     4     5   ar
    22     5    25    1
    23    25    26    1
    24    26    27    1
    25    12    13   ar
    26    13    14   ar
    27    14     6   ar
    28    14     9   ar
    29     5     1   ar
    30    24    17   ar
    31    27    28    1
@<TRIPOS>MOLECULE
*****
 28 31 0 0 0
SMALL
GASTEIGER

@<TRIPOS>ATOM
      1 C         139.9658  140.3134  165.0596 C.ar    1  UNL1        0.0985
      2 C         140.0541  141.2672  163.9052 C.ar    1  UNL1        0.1003
      3 N         138.9812  140.9049  162.9215 N.ar    1  UNL1       -0.2239
      4 C         138.2298  139.7272  163.4679 C.ar    1  UNL1        0.1786
      5 N         138.8383  139.3617  164.7893 N.ar    1  UNL1       -0.3052
      6 C         141.6684  142.3011  169.7044 C.ar    1  UNL1        0.1713
      7 C         142.7537  141.7958  170.6082 C.ar    1  UNL1        0.1302
      8 N         143.3403  140.5642  169.9845 N.ar    1  UNL1       -0.2227
      9 C         142.6176  140.3084  168.6952 C.ar    1  UNL1        0.1647
     10 C         142.7670  139.2366  167.6564 C.ar    1  UNL1        0.0405
     11 C         141.8830  139.2383  166.4446 C.ar    1  UNL1        0.0255
     12 C         140.8497  140.3118  166.2715 C.ar    1  UNL1        0.1187
     13 N         140.7004  141.3835  167.3102 N.ar    1  UNL1       -0.1616
     14 N         141.5843  141.3818  168.5220 N.ar    1  UNL1       -0.2010
     15 N         139.9651  144.7248  170.1782 N.1     1  UNL1       -0.1892
     16 C         140.8168  143.5130  169.9412 C.1     1  UNL1        0.1215
     17 C         141.0418  142.3867  163.7600 C.ar    1  UNL1        0.0202
     18 C         140.6188  143.8000  164.0314 C.ar    1  UNL1        0.0039
     19 C         141.6066  144.9195  163.8862 C.ar    1  UNL1        0.0306
     20 C         143.0173  144.6257  163.4697 C.ar    1  UNL1        0.1506
     21 F         144.0051  145.7452  163.3245 F       1  UNL1       -0.2033
     22 C         143.4404  143.2123  163.1983 C.ar    1  UNL1        0.0851
     23 CL        144.8510  142.9185  162.7818 Cl      1  UNL1       -0.0799
     24 C         142.4525  142.0929  163.3435 C.ar    1  UNL1        0.0152
     25 C         138.3969  138.2411  165.6834 C.3     1  UNL1        0.1393
     26 C         137.6754  138.5426  166.9634 C.3     1  UNL1        0.1616
     27 O         136.7384  137.5304  167.5527 O.3     1  UNL1       -0.3799
     28 H         135.9781  137.4112  166.9621 H       1  UNL1        0.2105
@<TRIPOS>BOND
     1    15    16    3
     2    16     6    1
     3     6     7   ar
     4     7     8   ar
     5     8     9   ar
     6     9    10   ar
     7    10    11   ar
     8    11    12   ar
     9    12     1    1
    10     1     2   ar
    11     2    17    1
    12    17    18   ar
    13    18    19   ar
    14    19    20   ar
    15    20    21    1
    16    20    22   ar
    17    22    23    1
    18    22    24   ar
    19     2     3   ar
    20     3     4   ar
    21     4     5   ar
    22     5    25    1
    23    25    26    1
    24    26    27    1
    25    12    13   ar
    26    13    14   ar
    27    14     6   ar
    28    14     9   ar
    29     5     1   ar
    30    24    17   ar
    31    27    28    1
@<TRIPOS>MOLECULE
*****
 28 31 0 0 0
SMALL
GASTEIGER

@<TRIPOS>ATOM
      1 C         140.0670  141.5132  167.1783 C.ar    1  UNL1        0.0985
      2 C         139.3984  140.1967  166.9137 C.ar    1  UNL1        0.1003
      3 N         139.0986  139.5551  168.2359 N.ar    1  UNL1       -0.2239
      4 C         139.5821  140.4749  169.3177 C.ar    1  UNL1        0.1786
      5 N         140.1806  141.6851  168.6640 N.ar    1  UNL1       -0.3052
      6 C         143.6345  143.3756  163.6813 C.ar    1  UNL1        0.1713
      7 C         143.5424  144.5741  162.7840 C.ar    1  UNL1        0.1302
      8 N         142.2131  145.2281  163.0191 N.ar    1  UNL1       -0.2227
      9 C         141.4837  144.4338  164.0617 C.ar    1  UNL1        0.1647
     10 C         140.1330  144.6052  164.6913 C.ar    1  UNL1        0.0405
     11 C         139.6608  143.6316  165.7301 C.ar    1  UNL1        0.0255
     12 C         140.5393  142.4867  166.1394 C.ar    1  UNL1        0.1187
     13 N         141.8899  142.3154  165.5098 N.ar    1  UNL1       -0.1616
     14 N         142.3621  143.2889  164.4710 N.ar    1  UNL1       -0.2010
     15 N         145.9558  141.4840  163.8646 N.1     1  UNL1       -0.1892
     16 C         144.7952  142.4299  163.7729 C.1     1  UNL1        0.1215
     17 C         139.0845  139.6228  165.5639 C.ar    1  UNL1        0.0202
     18 C         139.4413  138.1995  165.2526 C.ar    1  UNL1        0.0039
     19 C         139.1275  137.6256  163.9028 C.ar    1  UNL1        0.0306
     20 C         138.4568  138.4749  162.8641 C.ar    1  UNL1        0.1506
     21 F         138.1430  137.9010  161.5143 F       1  UNL1       -0.2033
     22 C         138.1000  139.8983  163.1753 C.ar    1  UNL1        0.0851
     23 CL        137.4294  140.7476  162.1367 Cl      1  UNL1       -0.0799
     24 C         138.4139  140.4721  164.5252 C.ar    1  UNL1        0.0152
     25 C         140.7862  142.8607  169.3719 C.3     1  UNL1        0.1393
     26 C         142.2140  142.8072  169.8284 C.3     1  UNL1        0.1616
     27 O         142.5382  142.9004  171.2900 O.3     1  UNL1       -0.3799
     28 H         142.2952  143.7797  171.6197 H       1  UNL1        0.2105
@<TRIPOS>BOND
     1    15    16    3
     2    16     6    1
     3     6     7   ar
     4     7     8   ar
     5     8     9   ar
     6     9    10   ar
     7    10    11   ar
     8    11    12   ar
     9    12     1    1
    10     1     2   ar
    11     2    17    1
    12    17    18   ar
    13    18    19   ar
    14    19    20   ar
    15    20    21    1
    16    20    22   ar
    17    22    23    1
    18    22    24   ar
    19     2     3   ar
    20     3     4   ar
    21     4     5   ar
    22     5    25    1
    23    25    26    1
    24    26    27    1
    25    12    13   ar
    26    13    14   ar
    27    14     6   ar
    28    14     9   ar
    29     5     1   ar
    30    24    17   ar
    31    27    28    1
@<TRIPOS>MOLECULE
*****
 28 31 0 0 0
SMALL
GASTEIGER

@<TRIPOS>ATOM
      1 C         143.0298  140.4450  165.7545 C.ar    1  UNL1        0.0985
      2 C         142.6449  140.0147  167.1390 C.ar    1  UNL1        0.1003
      3 N         143.2702  138.6763  167.3991 N.ar    1  UNL1       -0.2239
      4 C         144.0416  138.2794  166.1753 C.ar    1  UNL1        0.1786
      5 N         143.8929  139.3725  165.1589 N.ar    1  UNL1       -0.3052
      6 C         139.5746  143.5498  163.1381 C.ar    1  UNL1        0.1713
      7 C         139.7503  144.9569  162.6489 C.ar    1  UNL1        0.1302
      8 N         141.1314  145.4081  163.0217 N.ar    1  UNL1       -0.2227
      9 C         141.8092  144.2800  163.7414 C.ar    1  UNL1        0.1647
     10 C         143.1782  144.1502  164.3405 C.ar    1  UNL1        0.0405
     11 C         143.5850  142.8719  165.0115 C.ar    1  UNL1        0.0255
     12 C         142.6229  141.7234  165.0834 C.ar    1  UNL1        0.1187
     13 N         141.2539  141.8532  164.4843 N.ar    1  UNL1       -0.1616
     14 N         140.8470  143.1315  163.8133 N.ar    1  UNL1       -0.2010
     15 N         137.1107  141.8677  162.8218 N.1     1  UNL1       -0.1892
     16 C         138.3427  142.7088  162.9799 C.1     1  UNL1        0.1215
     17 C         141.7856  140.7872  168.0955 C.ar    1  UNL1        0.0202
     18 C         142.1925  142.1660  168.5236 C.ar    1  UNL1        0.0039
     19 C         141.3332  142.9385  169.4801 C.ar    1  UNL1        0.0306
     20 C         140.0670  142.3322  170.0085 C.ar    1  UNL1        0.1506
     21 F         139.2077  143.1047  170.9649 F       1  UNL1       -0.2033
     22 C         139.6601  140.9533  169.5803 C.ar    1  UNL1        0.0851
     23 CL        138.3939  140.3470  170.1086 Cl      1  UNL1       -0.0799
     24 C         140.5194  140.1809  168.6238 C.ar    1  UNL1        0.0152
     25 C         144.5008  139.3900  163.7877 C.3     1  UNL1        0.1393
     26 C         143.7600  138.7873  162.6311 C.3     1  UNL1        0.1616
     27 O         144.4988  137.9776  161.6071 O.3     1  UNL1       -0.3799
     28 H         145.1145  138.5510  161.1244 H       1  UNL1        0.2105
@<TRIPOS>BOND
     1    15    16    3
     2    16     6    1
     3     6     7   ar
     4     7     8   ar
     5     8     9   ar
     6     9    10   ar
     7    10    11   ar
     8    11    12   ar
     9    12     1    1
    10     1     2   ar
    11     2    17    1
    12    17    18   ar
    13    18    19   ar
    14    19    20   ar
    15    20    21    1
    16    20    22   ar
    17    22    23    1
    18    22    24   ar
    19     2     3   ar
    20     3     4   ar
    21     4     5   ar
    22     5    25    1
    23    25    26    1
    24    26    27    1
    25    12    13   ar
    26    13    14   ar
    27    14     6   ar
    28    14     9   ar
    29     5     1   ar
    30    24    17   ar
    31    27    28    1
@<TRIPOS>MOLECULE
*****
 28 31 0 0 0
SMALL
GASTEIGER

@<TRIPOS>ATOM
      1 C         140.6797  139.5370  165.8750 C.ar    1  UNL1        0.0985
      2 C         140.2406  139.9832  167.2381 C.ar    1  UNL1        0.1003
      3 N         138.9114  139.3511  167.5270 N.ar    1  UNL1       -0.2239
      4 C         138.5289  138.5141  166.3424 C.ar    1  UNL1        0.1786
      5 N         139.6218  138.6290  165.3214 N.ar    1  UNL1       -0.3052
      6 C         143.5780  142.6365  162.6475 C.ar    1  UNL1        0.1713
      7 C         145.0288  142.5265  162.2827 C.ar    1  UNL1        0.1302
      8 N         145.5986  141.3391  163.0006 N.ar    1  UNL1       -0.2227
      9 C         144.4999  140.7153  163.8092 C.ar    1  UNL1        0.1647
     10 C         144.4753  139.5207  164.7160 C.ar    1  UNL1        0.0405
     11 C         143.2019  139.1279  165.4046 C.ar    1  UNL1        0.0255
     12 C         141.9531  139.9298  165.1864 C.ar    1  UNL1        0.1187
     13 N         141.9778  141.1244  164.2796 N.ar    1  UNL1       -0.1616
     14 N         143.2511  141.5171  163.5910 N.ar    1  UNL1       -0.2010
     15 N         141.6658  144.7280  161.6631 N.1     1  UNL1       -0.1892
     16 C         142.6220  143.6823  162.1554 C.1     1  UNL1        0.1215
     17 C         140.9978  140.9006  168.1519 C.ar    1  UNL1        0.0202
     18 C         142.3830  140.5382  168.5990 C.ar    1  UNL1        0.0039
     19 C         143.1402  141.4556  169.5129 C.ar    1  UNL1        0.0306
     20 C         142.5122  142.7354  169.9796 C.ar    1  UNL1        0.1506
     21 F         143.2694  143.6527  170.8934 F       1  UNL1       -0.2033
     22 C         141.1269  143.0978  169.5325 C.ar    1  UNL1        0.0851
     23 CL        140.4990  144.3775  169.9992 Cl      1  UNL1       -0.0799
     24 C         140.3698  142.1803  168.6187 C.ar    1  UNL1        0.0152
     25 C         139.6515  137.9544  163.9820 C.3     1  UNL1        0.1393
     26 C         140.7345  136.9667  163.6635 C.3     1  UNL1        0.1616
     27 O         141.4808  137.0641  162.3660 O.3     1  UNL1       -0.3799
     28 H         140.8750  136.8836  161.6303 H       1  UNL1        0.2105
@<TRIPOS>BOND
     1    15    16    3
     2    16     6    1
     3     6     7   ar
     4     7     8   ar
     5     8     9   ar
     6     9    10   ar
     7    10    11   ar
     8    11    12   ar
     9    12     1    1
    10     1     2   ar
    11     2    17    1
    12    17    18   ar
    13    18    19   ar
    14    19    20   ar
    15    20    21    1
    16    20    22   ar
    17    22    23    1
    18    22    24   ar
    19     2     3   ar
    20     3     4   ar
    21     4     5   ar
    22     5    25    1
    23    25    26    1
    24    26    27    1
    25    12    13   ar
    26    13    14   ar
    27    14     6   ar
    28    14     9   ar
    29     5     1   ar
    30    24    17   ar
    31    27    28    1
@<TRIPOS>MOLECULE
*****
 28 31 0 0 0
SMALL
GASTEIGER

@<TRIPOS>ATOM
      1 C         139.5933  140.4564  165.2153 C.ar    1  UNL1        0.0985
      2 C         139.5655  139.8242  166.5753 C.ar    1  UNL1        0.1003
      3 N         138.8605  138.5053  166.4590 N.ar    1  UNL1       -0.2239
      4 C         138.4526  138.3224  165.0271 C.ar    1  UNL1        0.1786
      5 N         138.9055  139.5282  164.2585 N.ar    1  UNL1       -0.3052
      6 C         143.5874  143.5627  163.5352 C.ar    1  UNL1        0.1713
      7 C         143.6216  145.0533  163.3719 C.ar    1  UNL1        0.1302
      8 N         142.2818  145.5946  163.7744 N.ar    1  UNL1       -0.2227
      9 C         141.4196  144.4384  164.1865 C.ar    1  UNL1        0.1647
     10 C         140.0039  144.3669  164.6773 C.ar    1  UNL1        0.0405
     11 C         139.3952  143.0396  165.0202 C.ar    1  UNL1        0.0255
     12 C         140.2021  141.7838  164.8723 C.ar    1  UNL1        0.1187
     13 N         141.6177  141.8553  164.3816 N.ar    1  UNL1       -0.1616
     14 N         142.2264  143.1826  164.0387 N.ar    1  UNL1       -0.2010
     15 N         145.8445  141.6730  162.9564 N.1     1  UNL1       -0.1892
     16 C         144.7159  142.6179  163.2459 C.1     1  UNL1        0.1215
     17 C         140.1415  140.4083  167.8311 C.ar    1  UNL1        0.0202
     18 C         139.3511  140.3742  169.1054 C.ar    1  UNL1        0.0039
     19 C         139.9271  140.9583  170.3612 C.ar    1  UNL1        0.0306
     20 C         141.2936  141.5765  170.3427 C.ar    1  UNL1        0.1506
     21 F         141.8697  142.1606  171.5984 F       1  UNL1       -0.2033
     22 C         142.0842  141.6107  169.0683 C.ar    1  UNL1        0.0851
     23 CL        143.4506  142.2289  169.0497 Cl      1  UNL1       -0.0799
     24 C         141.5080  141.0266  167.8125 C.ar    1  UNL1        0.0152
     25 C         138.7057  139.7644  162.7908 C.3     1  UNL1        0.1393
     26 C         137.8010  140.8662  162.3247 C.3     1  UNL1        0.1616
     27 O         136.6315  141.2831  163.1663 O.3     1  UNL1       -0.3799
     28 H         135.9911  140.5560  163.2128 H       1  UNL1        0.2105
@<TRIPOS>BOND
     1    15    16    3
     2    16     6    1
     3     6     7   ar
     4     7     8   ar
     5     8     9   ar
     6     9    10   ar
     7    10    11   ar
     8    11    12   ar
     9    12     1    1
    10     1     2   ar
    11     2    17    1
    12    17    18   ar
    13    18    19   ar
    14    19    20   ar
    15    20    21    1
    16    20    22   ar
    17    22    23    1
    18    22    24   ar
    19     2     3   ar
    20     3     4   ar
    21     4     5   ar
    22     5    25    1
    23    25    26    1
    24    26    27    1
    25    12    13   ar
    26    13    14   ar
    27    14     6   ar
    28    14     9   ar
    29     5     1   ar
    30    24    17   ar
    31    27    28    1
@<TRIPOS>MOLECULE
*****
 28 31 0 0 0
SMALL
GASTEIGER

@<TRIPOS>ATOM
      1 C         139.8756  140.6548  165.2961 C.ar    1  UNL1        0.0985
      2 C         139.8539  140.5141  166.7894 C.ar    1  UNL1        0.1003
      3 N         138.8184  139.4883  167.1433 N.ar    1  UNL1       -0.2239
      4 C         138.2000  138.9950  165.8688 C.ar    1  UNL1        0.1786
      5 N         138.8534  139.7160  164.7272 N.ar    1  UNL1       -0.3052
      6 C         143.5730  141.6739  161.5928 C.ar    1  UNL1        0.1713
      7 C         144.1609  142.9910  161.1808 C.ar    1  UNL1        0.1302
      8 N         143.5221  144.0639  162.0119 N.ar    1  UNL1       -0.2227
      9 C         142.5394  143.4100  162.9375 C.ar    1  UNL1        0.1647
     10 C         141.6200  143.9688  163.9827 C.ar    1  UNL1        0.0405
     11 C         140.7321  143.0504  164.7688 C.ar    1  UNL1        0.0255
     12 C         140.7636  141.5732  164.5099 C.ar    1  UNL1        0.1187
     13 N         141.6830  141.0145  163.4647 N.ar    1  UNL1       -0.1616
     14 N         142.5709  141.9329  162.6785 N.ar    1  UNL1       -0.2010
     15 N         144.2777  138.9925  160.4467 N.1     1  UNL1       -0.1892
     16 C         143.9254  140.3332  161.0198 C.1     1  UNL1        0.1215
     17 C         140.7164  141.2670  167.7585 C.ar    1  UNL1        0.0202
     18 C         142.1209  140.8119  168.0230 C.ar    1  UNL1        0.0039
     19 C         142.9834  141.5648  168.9922 C.ar    1  UNL1        0.0306
     20 C         142.4413  142.7730  169.6969 C.ar    1  UNL1        0.1506
     21 F         143.3038  143.5259  170.6660 F       1  UNL1       -0.2033
     22 C         141.0366  143.2282  169.4324 C.ar    1  UNL1        0.0851
     23 CL        140.4945  144.4362  170.1370 Cl      1  UNL1       -0.0799
     24 C         140.1743  142.4752  168.4632 C.ar    1  UNL1        0.0152
     25 C         138.5397  139.5306  163.2721 C.3     1  UNL1        0.1393
     26 C         137.7579  140.5765  162.5342 C.3     1  UNL1        0.1616
     27 O         136.6477  141.3105  163.2261 O.3     1  UNL1       -0.3799
     28 H         135.9317  140.6906  163.4358 H       1  UNL1        0.2105
@<TRIPOS>BOND
     1    15    16    3
     2    16     6    1
     3     6     7   ar
     4     7     8   ar
     5     8     9   ar
     6     9    10   ar
     7    10    11   ar
     8    11    12   ar
     9    12     1    1
    10     1     2   ar
    11     2    17    1
    12    17    18   ar
    13    18    19   ar
    14    19    20   ar
    15    20    21    1
    16    20    22   ar
    17    22    23    1
    18    22    24   ar
    19     2     3   ar
    20     3     4   ar
    21     4     5   ar
    22     5    25    1
    23    25    26    1
    24    26    27    1
    25    12    13   ar
    26    13    14   ar
    27    14     6   ar
    28    14     9   ar
    29     5     1   ar
    30    24    17   ar
    31    27    28    1
@<TRIPOS>MOLECULE
*****
 28 31 0 0 0
SMALL
GASTEIGER

@<TRIPOS>ATOM
      1 C         141.2962  140.5711  167.3833 C.ar    1  UNL1        0.0985
      2 C         142.4741  139.7435  166.9616 C.ar    1  UNL1        0.1003
      3 N         142.9989  139.0326  168.1736 N.ar    1  UNL1       -0.2239
      4 C         142.1455  139.4209  169.3445 C.ar    1  UNL1        0.1786
      5 N         141.0932  140.3717  168.8560 N.ar    1  UNL1       -0.3052
      6 C         138.0863  141.4173  163.2115 C.ar    1  UNL1        0.1713
      7 C         137.4761  142.7013  162.7330 C.ar    1  UNL1        0.1302
      8 N         137.9226  143.7981  163.6537 N.ar    1  UNL1       -0.2227
      9 C         138.8089  143.1920  164.7012 C.ar    1  UNL1        0.1647
     10 C         139.5368  143.7898  165.8685 C.ar    1  UNL1        0.0405
     11 C         140.3659  142.9161  166.7625 C.ar    1  UNL1        0.0255
     12 C         140.4671  141.4447  166.4892 C.ar    1  UNL1        0.1187
     13 N         139.7392  140.8469  165.3219 N.ar    1  UNL1       -0.1616
     14 N         138.9101  141.7205  164.4278 N.ar    1  UNL1       -0.2010
     15 N         137.7232  138.7169  161.9560 N.1     1  UNL1       -0.1892
     16 C         137.9048  140.0671  162.5838 C.1     1  UNL1        0.1215
     17 C         143.0295  139.6442  165.5718 C.ar    1  UNL1        0.0202
     18 C         142.5566  138.5588  164.6508 C.ar    1  UNL1        0.0039
     19 C         143.1121  138.4595  163.2610 C.ar    1  UNL1        0.0306
     20 C         144.1405  139.4456  162.7921 C.ar    1  UNL1        0.1506
     21 F         144.6959  139.3463  161.4022 F       1  UNL1       -0.2033
     22 C         144.6134  140.5312  163.7130 C.ar    1  UNL1        0.0851
     23 CL        145.6417  141.5173  163.2441 Cl      1  UNL1       -0.0799
     24 C         144.0579  140.6304  165.1028 C.ar    1  UNL1        0.0152
     25 C         140.0253  141.0109  169.6933 C.3     1  UNL1        0.1393
     26 C         140.3319  142.2486  170.4832 C.3     1  UNL1        0.1616
     27 O         140.5214  142.1627  171.9687 O.3     1  UNL1       -0.3799
     28 H         139.6847  141.9064  172.3871 H       1  UNL1        0.2105
@<TRIPOS>BOND
     1    15    16    3
     2    16     6    1
     3     6     7   ar
     4     7     8   ar
     5     8     9   ar
     6     9    10   ar
     7    10    11   ar
     8    11    12   ar
     9    12     1    1
    10     1     2   ar
    11     2    17    1
    12    17    18   ar
    13    18    19   ar
    14    19    20   ar
    15    20    21    1
    16    20    22   ar
    17    22    23    1
    18    22    24   ar
    19     2     3   ar
    20     3     4   ar
    21     4     5   ar
    22     5    25    1
    23    25    26    1
    24    26    27    1
    25    12    13   ar
    26    13    14   ar
    27    14     6   ar
    28    14     9   ar
    29     5     1   ar
    30    24    17   ar
    31    27    28    1
