@<TRIPOS>MOLECULE
*****
 31 34 0 0 0
SMALL
GASTEIGER

@<TRIPOS>ATOM
      1 C         139.5819  142.5403  162.5042 C.ar    1  UNL1        0.2204
      2 N         140.5907  141.5145  162.9283 N.ar    1  UNL1       -0.2089
      3 C         140.4167  140.7833  164.2265 C.ar    1  UNL1        0.1402
      4 C         139.2339  141.0781  165.1006 C.ar    1  UNL1        0.1773
      5 C         138.2250  142.1040  164.6764 C.ar    1  UNL1        0.1402
      6 N         138.3990  142.8351  163.3783 N.ar    1  UNL1       -0.2089
      7 N         140.1038  144.7335  158.6097 N.pl3   1  UNL1       -0.2723
      8 C         139.3857  143.4169  158.6385 C.3     1  UNL1        0.1152
      9 C         139.2118  142.6858  159.9367 C.3     1  UNL1        0.1151
     10 N         139.7559  143.2714  161.2060 N.pl3   1  UNL1       -0.2764
     11 C         140.4739  144.5880  161.1771 C.3     1  UNL1        0.0954
     12 C         141.0180  145.1736  162.4464 C.3     1  UNL1        0.0233
     13 C         140.6479  145.3191  159.8789 C.3     1  UNL1        0.1135
     14 C         140.0791  147.1260  155.5534 C.ar    1  UNL1        0.2371
     15 N         139.6255  146.7621  156.9360 N.ar    1  UNL1       -0.1778
     16 C         140.2778  145.4646  157.3114 C.ar    1  UNL1        0.2593
     17 N         141.1346  145.0265  156.1608 N.ar    1  UNL1       -0.0400
     18 O         141.0118  146.0533  155.0742 O.2     1  UNL1       -0.3357
     19 C         138.7481  149.3525  155.4077 C.3     1  UNL1        0.0098
     20 C         139.6717  148.3480  154.7848 C.3     1  UNL1        0.0793
     21 C         140.1878  148.5654  153.3932 C.3     1  UNL1        0.0098
     22 O         139.0598  140.3471  166.3987 O.3     1  UNL1       -0.4675
     23 C         140.2617  139.8547  167.1491 C.3     1  UNL1        0.2329
     24 C         141.0340  140.7937  168.0276 C.ar    1  UNL1        0.0339
     25 C         142.3003  141.4209  167.5246 C.ar    1  UNL1        0.0207
     26 C         143.0725  142.3598  168.4032 C.ar    1  UNL1        0.0987
     27 N         142.5785  142.6716  169.7848 N.ar    1  UNL1       -0.2416
     28 C         141.3122  142.0444  170.2878 C.ar    1  UNL1        0.1089
     29 C         140.5399  141.1054  169.4092 C.ar    1  UNL1        0.0871
     30 C         139.2736  140.4782  169.9122 C.1     1  UNL1        0.1018
     31 N         138.0072  139.8510  170.4151 N.1     1  UNL1       -0.1908
@<TRIPOS>BOND
     1    19    20    1
     2    20    21    1
     3    20    14    1
     4    14    15   ar
     5    15    16   ar
     6    16     7    1
     7     7     8    1
     8     8     9    1
     9     9    10    1
    10    10     1    1
    11     1     2   ar
    12     2     3   ar
    13     3     4   ar
    14     4    22    1
    15    22    23    1
    16    23    24    1
    17    24    25   ar
    18    25    26   ar
    19    26    27   ar
    20    27    28   ar
    21    28    29   ar
    22    29    30    1
    23    30    31    3
    24     4     5   ar
    25     5     6   ar
    26    10    11    1
    27    11    12    1
    28    11    13    1
    29    16    17   ar
    30    17    18   ar
    31    18    14   ar
    32    13     7    1
    33     6     1   ar
    34    29    24   ar
@<TRIPOS>MOLECULE
*****
 31 34 0 0 0
SMALL
GASTEIGER

@<TRIPOS>ATOM
      1 C         139.6767  140.3896  160.4631 C.ar    1  UNL1        0.2204
      2 N         139.4295  141.7995  160.0147 N.ar    1  UNL1       -0.2089
      3 C         138.6540  142.7397  160.8892 C.ar    1  UNL1        0.1402
      4 C         138.1257  142.2699  162.2121 C.ar    1  UNL1        0.1773
      5 C         138.3729  140.8600  162.6606 C.ar    1  UNL1        0.1402
      6 N         139.1484  139.9199  161.7861 N.ar    1  UNL1       -0.2089
      7 N         142.0031  137.5691  157.8397 N.pl3   1  UNL1       -0.2723
      8 C         140.5789  137.9011  157.5062 C.3     1  UNL1        0.1152
      9 C         139.8034  138.8413  158.3807 C.3     1  UNL1        0.1151
     10 N         140.4522  139.4494  159.5886 N.pl3   1  UNL1       -0.2764
     11 C         141.8765  139.1174  159.9221 C.3     1  UNL1        0.0954
     12 C         142.5253  139.7256  161.1301 C.3     1  UNL1        0.0233
     13 C         142.6519  138.1773  159.0477 C.3     1  UNL1        0.1135
     14 C         143.5807  134.6041  155.8940 C.ar    1  UNL1        0.2371
     15 N         142.6014  135.1411  156.8953 N.ar    1  UNL1       -0.1778
     16 C         142.7786  136.6289  156.9652 C.ar    1  UNL1        0.2593
     17 N         143.8675  137.0115  156.0071 N.ar    1  UNL1       -0.0400
     18 O         144.3632  135.7601  155.3451 O.2     1  UNL1       -0.3357
     19 C         142.9610  132.5970  154.3651 C.3     1  UNL1        0.0098
     20 C         143.7481  133.1640  155.5092 C.3     1  UNL1        0.0793
     21 C         144.7026  132.2909  156.2686 C.3     1  UNL1        0.0098
     22 O         137.3502  143.2101  163.0866 O.3     1  UNL1       -0.4675
     23 C         138.0734  144.2087  163.9408 C.3     1  UNL1        0.2329
     24 C         139.5536  144.0840  164.1503 C.ar    1  UNL1        0.0339
     25 C         140.0868  143.1548  165.2002 C.ar    1  UNL1        0.0207
     26 C         141.5668  143.0303  165.4097 C.ar    1  UNL1        0.0987
     27 N         142.5136  143.8349  164.5694 N.ar    1  UNL1       -0.2416
     28 C         141.9804  144.7641  163.5196 C.ar    1  UNL1        0.1089
     29 C         140.5004  144.8887  163.3100 C.ar    1  UNL1        0.0871
     30 C         139.9671  145.8179  162.2601 C.1     1  UNL1        0.1018
     31 N         139.4339  146.7471  161.2103 N.1     1  UNL1       -0.1908
@<TRIPOS>BOND
     1    19    20    1
     2    20    21    1
     3    20    14    1
     4    14    15   ar
     5    15    16   ar
     6    16     7    1
     7     7     8    1
     8     8     9    1
     9     9    10    1
    10    10     1    1
    11     1     2   ar
    12     2     3   ar
    13     3     4   ar
    14     4    22    1
    15    22    23    1
    16    23    24    1
    17    24    25   ar
    18    25    26   ar
    19    26    27   ar
    20    27    28   ar
    21    28    29   ar
    22    29    30    1
    23    30    31    3
    24     4     5   ar
    25     5     6   ar
    26    10    11    1
    27    11    12    1
    28    11    13    1
    29    16    17   ar
    30    17    18   ar
    31    18    14   ar
    32    13     7    1
    33     6     1   ar
    34    29    24   ar
@<TRIPOS>MOLECULE
*****
 31 34 0 0 0
SMALL
GASTEIGER

@<TRIPOS>ATOM
      1 C         140.4412  141.8208  163.9465 C.ar    1  UNL1        0.2204
      2 N         139.0740  141.5183  164.4843 N.ar    1  UNL1       -0.2089
      3 C         138.9246  140.7516  165.7650 C.ar    1  UNL1        0.1402
      4 C         140.1424  140.2876  166.5077 C.ar    1  UNL1        0.1773
      5 C         141.5096  140.5902  165.9698 C.ar    1  UNL1        0.1402
      6 N         141.6589  141.3568  164.6892 N.ar    1  UNL1       -0.2089
      7 N         140.8893  144.1205  160.1045 N.pl3   1  UNL1       -0.2723
      8 C         140.6758  142.6362  160.0696 C.3     1  UNL1        0.1152
      9 C         140.5264  141.8697  161.3502 C.3     1  UNL1        0.1151
     10 N         140.5906  142.5874  162.6658 N.pl3   1  UNL1       -0.2764
     11 C         140.8041  144.0717  162.7007 C.3     1  UNL1        0.0954
     12 C         140.8683  144.7894  164.0163 C.3     1  UNL1        0.0233
     13 C         140.9535  144.8382  161.4201 C.3     1  UNL1        0.1135
     14 C         140.5746  145.8656  156.6518 C.ar    1  UNL1        0.2371
     15 N         140.0037  145.0123  157.7453 N.ar    1  UNL1       -0.1778
     16 C         141.0387  144.8871  158.8238 C.ar    1  UNL1        0.2593
     17 N         142.2493  145.6630  158.3968 N.ar    1  UNL1       -0.0400
     18 O         141.9625  146.2678  157.0544 O.2     1  UNL1       -0.3357
     19 C         140.6732  146.7797  154.2218 C.3     1  UNL1        0.0098
     20 C         139.8797  146.2494  155.3791 C.3     1  UNL1        0.0793
     21 C         138.3914  146.1029  155.2637 C.3     1  UNL1        0.0098
     22 O         139.9930  139.5210  167.7883 O.3     1  UNL1       -0.4675
     23 C         139.6918  140.2468  169.0660 C.3     1  UNL1        0.2329
     24 C         140.5712  141.3773  169.5117 C.ar    1  UNL1        0.0339
     25 C         140.0491  142.7834  169.4995 C.ar    1  UNL1        0.0207
     26 C         140.9284  143.9139  169.9451 C.ar    1  UNL1        0.0987
     27 N         142.3300  143.6383  170.4030 N.ar    1  UNL1       -0.2416
     28 C         142.8522  142.2322  170.4152 C.ar    1  UNL1        0.1089
     29 C         141.9728  141.1017  169.9696 C.ar    1  UNL1        0.0871
     30 C         142.4950  139.6955  169.9818 C.1     1  UNL1        0.1018
     31 N         143.0171  138.2894  169.9939 N.1     1  UNL1       -0.1908
@<TRIPOS>BOND
     1    19    20    1
     2    20    21    1
     3    20    14    1
     4    14    15   ar
     5    15    16   ar
     6    16     7    1
     7     7     8    1
     8     8     9    1
     9     9    10    1
    10    10     1    1
    11     1     2   ar
    12     2     3   ar
    13     3     4   ar
    14     4    22    1
    15    22    23    1
    16    23    24    1
    17    24    25   ar
    18    25    26   ar
    19    26    27   ar
    20    27    28   ar
    21    28    29   ar
    22    29    30    1
    23    30    31    3
    24     4     5   ar
    25     5     6   ar
    26    10    11    1
    27    11    12    1
    28    11    13    1
    29    16    17   ar
    30    17    18   ar
    31    18    14   ar
    32    13     7    1
    33     6     1   ar
    34    29    24   ar
@<TRIPOS>MOLECULE
*****
 31 34 0 0 0
SMALL
GASTEIGER

@<TRIPOS>ATOM
      1 C         142.6069  143.3966  162.7764 C.ar    1  UNL1        0.2204
      2 N         143.7685  143.9905  163.5166 N.ar    1  UNL1       -0.2089
      3 C         144.0394  143.5865  164.9356 C.ar    1  UNL1        0.1402
      4 C         143.1486  142.5885  165.6143 C.ar    1  UNL1        0.1773
      5 C         141.9870  141.9946  164.8740 C.ar    1  UNL1        0.1402
      6 N         141.7161  142.3987  163.4551 N.ar    1  UNL1       -0.2089
      7 N         141.7944  144.6087  158.5196 N.pl3   1  UNL1       -0.2723
      8 C         142.8061  143.5415  158.8154 C.3     1  UNL1        0.1152
      9 C         143.0769  143.1375  160.2344 C.3     1  UNL1        0.1151
     10 N         142.3360  143.8007  161.3574 N.pl3   1  UNL1       -0.2764
     11 C         141.3243  144.8678  161.0616 C.3     1  UNL1        0.0954
     12 C         140.5834  145.5310  162.1847 C.3     1  UNL1        0.0233
     13 C         141.0535  145.2718  159.6427 C.3     1  UNL1        0.1135
     14 C         140.8311  146.2898  155.1563 C.ar    1  UNL1        0.2371
     15 N         140.9184  146.3104  156.6536 N.ar    1  UNL1       -0.1778
     16 C         141.5235  145.0127  157.1006 C.ar    1  UNL1        0.2593
     17 N         141.8102  144.1900  155.8796 N.ar    1  UNL1       -0.0400
     18 O         141.3823  144.9793  154.6779 O.2     1  UNL1       -0.3357
     19 C         139.1892  148.2715  154.7998 C.3     1  UNL1        0.0098
     20 C         140.2879  147.3869  154.2896 C.3     1  UNL1        0.0793
     21 C         140.8436  147.5995  152.9126 C.3     1  UNL1        0.0098
     22 O         143.4194  142.1845  167.0332 O.3     1  UNL1       -0.4675
     23 C         142.5258  141.1902  167.7134 C.3     1  UNL1        0.2329
     24 C         141.7348  141.5962  168.9216 C.ar    1  UNL1        0.0339
     25 C         141.0093  142.9090  168.9367 C.ar    1  UNL1        0.0207
     26 C         140.2184  143.3149  170.1448 C.ar    1  UNL1        0.0987
     27 N         140.1528  142.4080  171.3378 N.ar    1  UNL1       -0.2416
     28 C         140.8783  141.0952  171.3227 C.ar    1  UNL1        0.1089
     29 C         141.6692  140.6893  170.1146 C.ar    1  UNL1        0.0871
     30 C         142.3947  139.3764  170.0995 C.1     1  UNL1        0.1018
     31 N         143.1201  138.0637  170.0843 N.1     1  UNL1       -0.1908
@<TRIPOS>BOND
     1    19    20    1
     2    20    21    1
     3    20    14    1
     4    14    15   ar
     5    15    16   ar
     6    16     7    1
     7     7     8    1
     8     8     9    1
     9     9    10    1
    10    10     1    1
    11     1     2   ar
    12     2     3   ar
    13     3     4   ar
    14     4    22    1
    15    22    23    1
    16    23    24    1
    17    24    25   ar
    18    25    26   ar
    19    26    27   ar
    20    27    28   ar
    21    28    29   ar
    22    29    30    1
    23    30    31    3
    24     4     5   ar
    25     5     6   ar
    26    10    11    1
    27    11    12    1
    28    11    13    1
    29    16    17   ar
    30    17    18   ar
    31    18    14   ar
    32    13     7    1
    33     6     1   ar
    34    29    24   ar
@<TRIPOS>MOLECULE
*****
 31 34 0 0 0
SMALL
GASTEIGER

@<TRIPOS>ATOM
      1 C         140.8651  138.5279  160.7910 C.ar    1  UNL1        0.2204
      2 N         139.7721  138.6492  159.7708 N.ar    1  UNL1       -0.2089
      3 C         140.0639  138.3827  158.3238 C.ar    1  UNL1        0.1402
      4 C         141.4486  137.9949  157.8969 C.ar    1  UNL1        0.1773
      5 C         142.5416  137.8736  158.9172 C.ar    1  UNL1        0.1402
      6 N         142.2498  138.1401  160.3642 N.ar    1  UNL1       -0.2089
      7 N         139.9898  139.3273  165.1320 N.pl3   1  UNL1       -0.2723
      8 C         139.7643  137.9587  164.5612 C.3     1  UNL1        0.1152
      9 C         140.0561  137.6923  163.1142 C.3     1  UNL1        0.1151
     10 N         140.5733  138.7944  162.2380 N.pl3   1  UNL1       -0.2764
     11 C         140.7988  140.1631  162.8089 C.3     1  UNL1        0.0954
     12 C         141.3161  141.2653  161.9328 C.3     1  UNL1        0.0233
     13 C         140.5071  140.4295  164.2559 C.3     1  UNL1        0.1135
     14 C         139.8468  140.4556  168.8432 C.ar    1  UNL1        0.2371
     15 N         140.4936  140.4812  167.4900 N.ar    1  UNL1       -0.1778
     16 C         139.6981  139.5938  166.5791 C.ar    1  UNL1        0.2593
     17 N         138.5596  139.0198  167.3693 N.ar    1  UNL1       -0.0400
     18 O         138.6515  139.5524  168.7685 O.2     1  UNL1       -0.3357
     19 C         139.6672  142.5028  170.4328 C.3     1  UNL1        0.0098
     20 C         140.3134  141.2021  170.0577 C.3     1  UNL1        0.0793
     21 C         141.4261  140.6478  170.8971 C.3     1  UNL1        0.0098
     22 O         141.7404  137.7284  156.4500 O.3     1  UNL1       -0.4675
     23 C         142.8539  136.7987  156.0683 C.3     1  UNL1        0.2329
     24 C         142.6722  135.3158  156.2029 C.ar    1  UNL1        0.0339
     25 C         143.4674  134.5519  157.2198 C.ar    1  UNL1        0.0207
     26 C         143.2856  133.0691  157.3544 C.ar    1  UNL1        0.0987
     27 N         142.3087  132.3501  156.4720 N.ar    1  UNL1       -0.2416
     28 C         141.5135  133.1139  155.4551 C.ar    1  UNL1        0.1089
     29 C         141.6952  134.5967  155.3205 C.ar    1  UNL1        0.0871
     30 C         140.9000  135.3606  154.3035 C.1     1  UNL1        0.1018
     31 N         140.1048  136.1245  153.2866 N.1     1  UNL1       -0.1908
@<TRIPOS>BOND
     1    19    20    1
     2    20    21    1
     3    20    14    1
     4    14    15   ar
     5    15    16   ar
     6    16     7    1
     7     7     8    1
     8     8     9    1
     9     9    10    1
    10    10     1    1
    11     1     2   ar
    12     2     3   ar
    13     3     4   ar
    14     4    22    1
    15    22    23    1
    16    23    24    1
    17    24    25   ar
    18    25    26   ar
    19    26    27   ar
    20    27    28   ar
    21    28    29   ar
    22    29    30    1
    23    30    31    3
    24     4     5   ar
    25     5     6   ar
    26    10    11    1
    27    11    12    1
    28    11    13    1
    29    16    17   ar
    30    17    18   ar
    31    18    14   ar
    32    13     7    1
    33     6     1   ar
    34    29    24   ar
@<TRIPOS>MOLECULE
*****
 31 34 0 0 0
SMALL
GASTEIGER

@<TRIPOS>ATOM
      1 C         141.1351  141.4485  158.9929 C.ar    1  UNL1        0.2204
      2 N         139.7192  141.6237  159.4558 N.ar    1  UNL1       -0.2089
      3 C         139.2587  142.9539  159.9742 C.ar    1  UNL1        0.1402
      4 C         140.2142  144.1088  160.0296 C.ar    1  UNL1        0.1773
      5 C         141.6303  143.9336  159.5666 C.ar    1  UNL1        0.1402
      6 N         142.0907  142.6034  159.0483 N.ar    1  UNL1       -0.2089
      7 N         142.5165  137.4581  157.4376 N.pl3   1  UNL1       -0.2723
      8 C         141.9039  138.4569  156.5010 C.3     1  UNL1        0.1152
      9 C         141.4434  139.7869  157.0195 C.3     1  UNL1        0.1151
     10 N         141.5956  140.1183  158.4745 N.pl3   1  UNL1       -0.2764
     11 C         142.2082  139.1196  159.4110 C.3     1  UNL1        0.0954
     12 C         142.3604  139.4510  160.8660 C.3     1  UNL1        0.0233
     13 C         142.6686  137.7895  158.8926 C.3     1  UNL1        0.1135
     14 C         143.7353  133.8244  156.8246 C.ar    1  UNL1        0.2371
     15 N         143.3282  134.9308  157.7519 N.ar    1  UNL1       -0.1778
     16 C         142.9769  136.1280  156.9192 C.ar    1  UNL1        0.2593
     17 N         143.1670  135.7615  155.4772 N.ar    1  UNL1       -0.0400
     18 O         143.6357  134.3378  155.4186 O.2     1  UNL1       -0.3357
     19 C         145.4317  132.2572  158.0146 C.3     1  UNL1        0.0098
     20 C         144.1664  132.4465  157.2316 C.3     1  UNL1        0.0793
     21 C         143.3321  131.2580  156.8555 C.3     1  UNL1        0.0098
     22 O         139.7538  145.4390  160.5480 O.3     1  UNL1       -0.4675
     23 C         140.1800  145.9015  161.9097 C.3     1  UNL1        0.2329
     24 C         140.0017  145.0024  163.0971 C.ar    1  UNL1        0.0339
     25 C         138.6252  144.7096  163.6161 C.ar    1  UNL1        0.0207
     26 C         138.4469  143.8105  164.8034 C.ar    1  UNL1        0.0987
     27 N         139.6451  143.2042  165.4718 N.ar    1  UNL1       -0.2416
     28 C         141.0216  143.4970  164.9528 C.ar    1  UNL1        0.1089
     29 C         141.1999  144.3961  163.7654 C.ar    1  UNL1        0.0871
     30 C         142.5765  144.6890  163.2464 C.1     1  UNL1        0.1018
     31 N         143.9530  144.9818  162.7274 N.1     1  UNL1       -0.1908
@<TRIPOS>BOND
     1    19    20    1
     2    20    21    1
     3    20    14    1
     4    14    15   ar
     5    15    16   ar
     6    16     7    1
     7     7     8    1
     8     8     9    1
     9     9    10    1
    10    10     1    1
    11     1     2   ar
    12     2     3   ar
    13     3     4   ar
    14     4    22    1
    15    22    23    1
    16    23    24    1
    17    24    25   ar
    18    25    26   ar
    19    26    27   ar
    20    27    28   ar
    21    28    29   ar
    22    29    30    1
    23    30    31    3
    24     4     5   ar
    25     5     6   ar
    26    10    11    1
    27    11    12    1
    28    11    13    1
    29    16    17   ar
    30    17    18   ar
    31    18    14   ar
    32    13     7    1
    33     6     1   ar
    34    29    24   ar
@<TRIPOS>MOLECULE
*****
 31 34 0 0 0
SMALL
GASTEIGER

@<TRIPOS>ATOM
      1 C         139.2525  142.4783  161.4168 C.ar    1  UNL1        0.2204
      2 N         137.9766  142.6307  162.1907 N.ar    1  UNL1       -0.2089
      3 C         137.7669  141.8479  163.4530 C.ar    1  UNL1        0.1402
      4 C         138.8332  140.9126  163.9413 C.ar    1  UNL1        0.1773
      5 C         140.1090  140.7602  163.1673 C.ar    1  UNL1        0.1402
      6 N         140.3187  141.5430  161.9051 N.ar    1  UNL1       -0.2089
      7 N         139.8814  144.8265  157.6300 N.pl3   1  UNL1       -0.2723
      8 C         139.2006  143.4909  157.5799 C.3     1  UNL1        0.1152
      9 C         138.9909  142.7082  158.8421 C.3     1  UNL1        0.1151
     10 N         139.4621  143.2611  160.1545 N.pl3   1  UNL1       -0.2764
     11 C         140.1430  144.5967  160.2046 C.3     1  UNL1        0.0954
     12 C         140.6142  145.1495  161.5169 C.3     1  UNL1        0.0233
     13 C         140.3526  145.3794  158.9423 C.3     1  UNL1        0.1135
     14 C         140.0719  147.4053  154.7352 C.ar    1  UNL1        0.2371
     15 N         139.6613  147.0262  156.1272 N.ar    1  UNL1       -0.1778
     16 C         140.0911  145.6094  156.3677 C.ar    1  UNL1        0.2593
     17 N         140.7674  145.1128  155.1243 N.ar    1  UNL1       -0.0400
     18 O         140.7555  146.2227  154.1154 O.2     1  UNL1       -0.3357
     19 C         139.2077  149.8526  154.8520 C.3     1  UNL1        0.0098
     20 C         139.8397  148.7337  154.0784 C.3     1  UNL1        0.0793
     21 C         140.2395  148.9431  152.6479 C.3     1  UNL1        0.0098
     22 O         138.6235  140.1299  165.2035 O.3     1  UNL1       -0.4675
     23 C         139.7674  139.9105  166.1486 C.3     1  UNL1        0.2329
     24 C         139.8119  140.6453  167.4557 C.ar    1  UNL1        0.0339
     25 C         139.2427  140.0132  168.6911 C.ar    1  UNL1        0.0207
     26 C         139.2872  140.7480  169.9980 C.ar    1  UNL1        0.0987
     27 N         139.9009  142.1148  170.0695 N.ar    1  UNL1       -0.2416
     28 C         140.4702  142.7469  168.8340 C.ar    1  UNL1        0.1089
     29 C         140.4257  142.0121  167.5271 C.ar    1  UNL1        0.0871
     30 C         140.9950  142.6441  166.2916 C.1     1  UNL1        0.1018
     31 N         141.5642  143.2761  165.0560 N.1     1  UNL1       -0.1908
@<TRIPOS>BOND
     1    19    20    1
     2    20    21    1
     3    20    14    1
     4    14    15   ar
     5    15    16   ar
     6    16     7    1
     7     7     8    1
     8     8     9    1
     9     9    10    1
    10    10     1    1
    11     1     2   ar
    12     2     3   ar
    13     3     4   ar
    14     4    22    1
    15    22    23    1
    16    23    24    1
    17    24    25   ar
    18    25    26   ar
    19    26    27   ar
    20    27    28   ar
    21    28    29   ar
    22    29    30    1
    23    30    31    3
    24     4     5   ar
    25     5     6   ar
    26    10    11    1
    27    11    12    1
    28    11    13    1
    29    16    17   ar
    30    17    18   ar
    31    18    14   ar
    32    13     7    1
    33     6     1   ar
    34    29    24   ar
@<TRIPOS>MOLECULE
*****
 31 34 0 0 0
SMALL
GASTEIGER

@<TRIPOS>ATOM
      1 C         140.9255  144.2139  159.9230 C.ar    1  UNL1        0.2204
      2 N         141.9729  145.1736  159.4413 N.ar    1  UNL1       -0.2089
      3 C         141.7835  145.9010  158.1431 C.ar    1  UNL1        0.1402
      4 C         140.5468  145.6686  157.3267 C.ar    1  UNL1        0.1773
      5 C         139.4995  144.7088  157.8085 C.ar    1  UNL1        0.1402
      6 N         139.6888  143.9815  159.1066 N.ar    1  UNL1       -0.2089
      7 N         141.4936  142.0319  163.8173 N.pl3   1  UNL1       -0.2723
      8 C         141.9413  141.4013  162.5321 C.3     1  UNL1        0.1152
      9 C         141.7519  142.1286  161.2340 C.3     1  UNL1        0.1151
     10 N         141.1149  143.4866  161.2212 N.pl3   1  UNL1       -0.2764
     11 C         140.6672  144.1172  162.5064 C.3     1  UNL1        0.0954
     12 C         140.0302  145.4751  162.4936 C.3     1  UNL1        0.0233
     13 C         140.8566  143.3898  163.8045 C.3     1  UNL1        0.1135
     14 C         142.2626  140.8065  167.4191 C.ar    1  UNL1        0.2371
     15 N         142.2606  141.8821  166.3736 N.ar    1  UNL1       -0.1778
     16 C         141.6829  141.3046  165.1155 C.ar    1  UNL1        0.2593
     17 N         141.3279  139.8720  165.3835 N.ar    1  UNL1       -0.0400
     18 O         141.6861  139.5642  166.8072 O.2     1  UNL1       -0.3357
     19 C         143.3961  142.2291  169.2743 C.3     1  UNL1        0.0098
     20 C         142.7546  140.9483  168.8290 C.3     1  UNL1        0.0793
     21 C         142.6051  139.8094  169.7936 C.3     1  UNL1        0.0098
     22 O         140.3574  146.3959  156.0286 O.3     1  UNL1       -0.4675
     23 C         139.1254  147.2216  155.8044 C.3     1  UNL1        0.2329
     24 C         139.2216  148.5303  155.0777 C.ar    1  UNL1        0.0339
     25 C         139.7509  148.5720  153.6748 C.ar    1  UNL1        0.0207
     26 C         139.8471  149.8807  152.9482 C.ar    1  UNL1        0.0987
     27 N         139.4140  151.1477  153.6244 N.ar    1  UNL1       -0.2416
     28 C         138.8848  151.1059  155.0273 C.ar    1  UNL1        0.1089
     29 C         138.7886  149.7972  155.7539 C.ar    1  UNL1        0.0871
     30 C         138.2594  149.7555  157.1569 C.1     1  UNL1        0.1018
     31 N         137.7302  149.7137  158.5598 N.1     1  UNL1       -0.1908
@<TRIPOS>BOND
     1    19    20    1
     2    20    21    1
     3    20    14    1
     4    14    15   ar
     5    15    16   ar
     6    16     7    1
     7     7     8    1
     8     8     9    1
     9     9    10    1
    10    10     1    1
    11     1     2   ar
    12     2     3   ar
    13     3     4   ar
    14     4    22    1
    15    22    23    1
    16    23    24    1
    17    24    25   ar
    18    25    26   ar
    19    26    27   ar
    20    27    28   ar
    21    28    29   ar
    22    29    30    1
    23    30    31    3
    24     4     5   ar
    25     5     6   ar
    26    10    11    1
    27    11    12    1
    28    11    13    1
    29    16    17   ar
    30    17    18   ar
    31    18    14   ar
    32    13     7    1
    33     6     1   ar
    34    29    24   ar
@<TRIPOS>MOLECULE
*****
 31 34 0 0 0
SMALL
GASTEIGER

@<TRIPOS>ATOM
      1 C         140.9841  140.1022  163.5980 C.ar    1  UNL1        0.2204
      2 N         141.2524  138.6830  164.0027 N.ar    1  UNL1       -0.2089
      3 C         141.9988  138.3931  165.2711 C.ar    1  UNL1        0.1402
      4 C         142.4770  139.5225  166.1348 C.ar    1  UNL1        0.1773
      5 C         142.2088  140.9417  165.7300 C.ar    1  UNL1        0.1402
      6 N         141.4623  141.2316  164.4616 N.ar    1  UNL1       -0.2089
      7 N         138.7448  140.9718  159.7929 N.pl3   1  UNL1       -0.2723
      8 C         137.9917  140.7202  161.0655 C.3     1  UNL1        0.1152
      9 C         138.7382  140.4304  162.3338 C.3     1  UNL1        0.1151
     10 N         140.2377  140.3921  162.3295 N.pl3   1  UNL1       -0.2764
     11 C         140.9907  140.6437  161.0569 C.3     1  UNL1        0.0954
     12 C         142.4902  140.6054  161.0527 C.3     1  UNL1        0.0233
     13 C         140.2443  140.9335  159.7886 C.3     1  UNL1        0.1135
     14 C         136.5186  141.0360  156.6139 C.ar    1  UNL1        0.2371
     15 N         137.0240  140.3452  157.8457 N.ar    1  UNL1       -0.1778
     16 C         137.9983  141.2617  158.5244 C.ar    1  UNL1        0.2593
     17 N         138.0951  142.5190  157.7121 N.ar    1  UNL1       -0.0400
     18 O         137.1806  142.3795  156.5313 O.2     1  UNL1       -0.3357
     19 C         134.0691  140.8103  155.7779 C.3     1  UNL1        0.0098
     20 C         135.5256  140.4808  155.6363 C.3     1  UNL1        0.0793
     21 C         135.9891  139.5962  154.5171 C.3     1  UNL1        0.0098
     22 O         143.2234  139.2326  167.4031 O.3     1  UNL1       -0.4675
     23 C         142.5293  139.3572  168.7270 C.3     1  UNL1        0.2329
     24 C         142.1786  140.7126  169.2654 C.ar    1  UNL1        0.0339
     25 C         143.2551  141.6067  169.8054 C.ar    1  UNL1        0.0207
     26 C         142.9044  142.9621  170.3438 C.ar    1  UNL1        0.0987
     27 N         141.4771  143.4234  170.3421 N.ar    1  UNL1       -0.2416
     28 C         140.4005  142.5294  169.8020 C.ar    1  UNL1        0.1089
     29 C         140.7513  141.1740  169.2637 C.ar    1  UNL1        0.0871
     30 C         139.6747  140.2798  168.7236 C.1     1  UNL1        0.1018
     31 N         138.5982  139.3858  168.1835 N.1     1  UNL1       -0.1908
@<TRIPOS>BOND
     1    19    20    1
     2    20    21    1
     3    20    14    1
     4    14    15   ar
     5    15    16   ar
     6    16     7    1
     7     7     8    1
     8     8     9    1
     9     9    10    1
    10    10     1    1
    11     1     2   ar
    12     2     3   ar
    13     3     4   ar
    14     4    22    1
    15    22    23    1
    16    23    24    1
    17    24    25   ar
    18    25    26   ar
    19    26    27   ar
    20    27    28   ar
    21    28    29   ar
    22    29    30    1
    23    30    31    3
    24     4     5   ar
    25     5     6   ar
    26    10    11    1
    27    11    12    1
    28    11    13    1
    29    16    17   ar
    30    17    18   ar
    31    18    14   ar
    32    13     7    1
    33     6     1   ar
    34    29    24   ar
