@<TRIPOS>MOLECULE
*****
 32 35 0 0 0
SMALL
GASTEIGER

@<TRIPOS>ATOM
      1 C         139.6107  140.4546  167.8074 C.ar    1  UNL1       -0.0065
      2 C         140.4928  141.4520  167.1167 C.ar    1  UNL1       -0.0033
      3 C         140.8788  141.2451  165.6820 C.ar    1  UNL1       -0.0048
      4 C         140.3826  140.0408  164.9381 C.ar    1  UNL1       -0.0245
      5 C         139.5006  139.0434  165.6287 C.ar    1  UNL1       -0.0263
      6 C         139.1146  139.2503  167.0634 C.ar    1  UNL1       -0.0075
      7 C         139.0044  137.8391  164.8848 C.3     1  UNL1        0.0277
      8 C         139.3903  137.6322  163.4501 C.3     1  UNL1        0.0248
      9 C         140.2725  138.6297  162.7594 C.3     1  UNL1        0.0801
     10 C         140.7686  139.8339  163.5034 C.3     1  UNL1        0.0458
     11 N         140.6584  138.4228  161.3248 N.am    1  UNL1       -0.2783
     12 C         139.6393  138.6079  160.2397 C.3     1  UNL1        0.1107
     13 C         140.0253  138.4010  158.8051 C.3     1  UNL1        0.0942
     14 N         141.4303  138.0090  158.4555 N.3     1  UNL1       -0.2632
     15 C         142.4494  137.8239  159.5404 C.3     1  UNL1        0.1587
     16 C         142.0634  138.0308  160.9751 C.2     1  UNL1        0.2420
     17 O         143.0825  137.8457  162.0601 O.2     1  UNL1       -0.2734
     18 C         141.8163  137.8021  157.0208 C.3     1  UNL1        0.0773
     19 C         142.9732  136.9117  156.6763 C.3     1  UNL1        0.0437
     20 C         142.7549  135.4407  156.4795 C.ar    1  UNL1       -0.0206
     21 C         141.6903  134.9598  155.5387 C.ar    1  UNL1       -0.0019
     22 C         141.4719  133.4889  155.3419 C.ar    1  UNL1        0.0293
     23 C         142.3182  132.4989  156.0860 C.ar    1  UNL1        0.1401
     24 F         142.0999  131.0280  155.8892 F       1  UNL1       -0.2042
     25 C         143.3829  132.9798  157.0268 C.ar    1  UNL1        0.0293
     26 C         143.6013  134.4507  157.2236 C.ar    1  UNL1       -0.0019
     27 C         139.2248  140.6614  169.2420 C.3     1  UNL1        0.0991
     28 N         140.2030  141.2721  170.2013 N.3     1  UNL1       -0.2690
     29 C         140.3501  143.8451  169.8729 C.3     1  UNL1        0.0188
     30 C         139.9788  142.6625  170.7176 C.3     1  UNL1        0.0724
     31 C         141.4054  140.4923  170.6443 C.3     1  UNL1        0.0724
     32 C         142.7828  140.9873  170.3164 C.3     1  UNL1        0.0188
@<TRIPOS>BOND
     1    29    30    1
     2    30    28    1
     3    28    31    1
     4    31    32    1
     5    28    27    1
     6    27     1    1
     7     1     2   ar
     8     2     3   ar
     9     3     4   ar
    10     4     5   ar
    11     5     6   ar
    12     5     7    1
    13     7     8    1
    14     8     9    1
    15     9    11    1
    16    11    12    1
    17    12    13    1
    18    13    14    1
    19    14    18    1
    20    18    19    1
    21    19    20    1
    22    20    21   ar
    23    21    22   ar
    24    22    23   ar
    25    23    24    1
    26    23    25   ar
    27    25    26   ar
    28    14    15    1
    29    15    16    1
    30    16    17    2
    31     9    10    1
    32     6     1   ar
    33    16    11   am
    34    10     4    1
    35    26    20   ar
@<TRIPOS>MOLECULE
*****
 32 35 0 0 0
SMALL
GASTEIGER

@<TRIPOS>ATOM
      1 C         139.0489  139.8305  167.9362 C.ar    1  UNL1       -0.0065
      2 C         138.1602  138.8221  167.2704 C.ar    1  UNL1       -0.0033
      3 C         138.4016  138.4376  165.8408 C.ar    1  UNL1       -0.0048
      4 C         139.5318  139.0614  165.0769 C.ar    1  UNL1       -0.0245
      5 C         140.4205  140.0698  165.7427 C.ar    1  UNL1       -0.0263
      6 C         140.1791  140.4543  167.1723 C.ar    1  UNL1       -0.0075
      7 C         141.5507  140.6937  164.9788 C.3     1  UNL1        0.0277
      8 C         141.7922  140.3091  163.5492 C.3     1  UNL1        0.0248
      9 C         140.9034  139.3007  162.8834 C.3     1  UNL1        0.0801
     10 C         139.7732  138.6769  163.6473 C.3     1  UNL1        0.0458
     11 N         141.1448  138.9162  161.4538 N.am    1  UNL1       -0.2783
     12 C         140.1201  139.2391  160.4070 C.3     1  UNL1        0.1107
     13 C         140.3616  138.8545  158.9774 C.3     1  UNL1        0.0942
     14 N         141.6277  138.1471  158.5946 N.3     1  UNL1       -0.2632
     15 C         142.6523  137.8242  159.6414 C.3     1  UNL1        0.1587
     16 C         142.4109  138.2088  161.0710 C.2     1  UNL1        0.2420
     17 O         143.4355  137.8859  162.1178 O.2     1  UNL1       -0.2734
     18 C         141.8691  137.7625  157.1649 C.3     1  UNL1        0.0773
     19 C         142.9948  136.8337  156.8179 C.3     1  UNL1        0.0437
     20 C         142.7156  135.3845  156.5496 C.ar    1  UNL1       -0.0206
     21 C         141.6840  134.9953  155.5327 C.ar    1  UNL1       -0.0019
     22 C         141.4049  133.5461  155.2643 C.ar    1  UNL1        0.0293
     23 C         142.1574  132.4862  156.0128 C.ar    1  UNL1        0.1401
     24 F         141.8783  131.0371  155.7444 F       1  UNL1       -0.2042
     25 C         143.1891  132.8755  157.0297 C.ar    1  UNL1        0.0293
     26 C         143.4683  134.3246  157.2981 C.ar    1  UNL1       -0.0019
     27 C         138.8075  140.2150  169.3658 C.3     1  UNL1        0.0991
     28 N         139.8674  140.9461  170.1351 N.3     1  UNL1       -0.2690
     29 C         142.0874  139.6141  169.9163 C.3     1  UNL1        0.0188
     30 C         140.9935  140.1848  170.7695 C.3     1  UNL1        0.0724
     31 C         139.8014  142.4386  170.2700 C.3     1  UNL1        0.0724
     32 C         140.7195  143.3062  169.4610 C.3     1  UNL1        0.0188
@<TRIPOS>BOND
     1    29    30    1
     2    30    28    1
     3    28    31    1
     4    31    32    1
     5    28    27    1
     6    27     1    1
     7     1     2   ar
     8     2     3   ar
     9     3     4   ar
    10     4     5   ar
    11     5     6   ar
    12     5     7    1
    13     7     8    1
    14     8     9    1
    15     9    11    1
    16    11    12    1
    17    12    13    1
    18    13    14    1
    19    14    18    1
    20    18    19    1
    21    19    20    1
    22    20    21   ar
    23    21    22   ar
    24    22    23   ar
    25    23    24    1
    26    23    25   ar
    27    25    26   ar
    28    14    15    1
    29    15    16    1
    30    16    17    2
    31     9    10    1
    32     6     1   ar
    33    16    11   am
    34    10     4    1
    35    26    20   ar
@<TRIPOS>MOLECULE
*****
 32 35 0 0 0
SMALL
GASTEIGER

@<TRIPOS>ATOM
      1 C         142.0507  141.0017  166.1901 C.ar    1  UNL1       -0.0065
      2 C         141.3761  140.1263  165.1760 C.ar    1  UNL1       -0.0033
      3 C         141.1539  140.6292  163.7804 C.ar    1  UNL1       -0.0048
      4 C         141.6063  142.0075  163.3989 C.ar    1  UNL1       -0.0245
      5 C         142.2809  142.8829  164.4130 C.ar    1  UNL1       -0.0263
      6 C         142.5031  142.3800  165.8086 C.ar    1  UNL1       -0.0075
      7 C         142.7333  144.2613  164.0315 C.3     1  UNL1        0.0277
      8 C         142.5111  144.7642  162.6359 C.3     1  UNL1        0.0248
      9 C         141.8364  143.8887  161.6218 C.3     1  UNL1        0.0801
     10 C         141.3840  142.5104  162.0033 C.3     1  UNL1        0.0458
     11 N         141.6142  144.3915  160.2262 N.am    1  UNL1       -0.2783
     12 C         142.5304  143.9612  159.1191 C.3     1  UNL1        0.1107
     13 C         142.3081  144.4641  157.7235 C.3     1  UNL1        0.0942
     14 N         141.1697  145.3973  157.4350 N.3     1  UNL1       -0.2632
     15 C         140.2536  145.8276  158.5420 C.3     1  UNL1        0.1587
     16 C         140.4758  145.3247  159.9376 C.2     1  UNL1        0.2420
     17 O         139.5597  145.7550  161.0446 O.2     1  UNL1       -0.2734
     18 C         140.9475  145.9002  156.0393 C.3     1  UNL1        0.0773
     19 C         139.5866  146.3716  155.6198 C.3     1  UNL1        0.0437
     20 C         139.2978  147.8405  155.5257 C.ar    1  UNL1       -0.0206
     21 C         138.5742  148.5355  156.6407 C.ar    1  UNL1       -0.0019
     22 C         138.2853  150.0045  156.5465 C.ar    1  UNL1        0.0293
     23 C         138.7201  150.7783  155.3374 C.ar    1  UNL1        0.1401
     24 F         138.4313  152.2472  155.2433 F       1  UNL1       -0.2042
     25 C         139.4437  150.0833  154.2223 C.ar    1  UNL1        0.0293
     26 C         139.7326  148.6144  154.3164 C.ar    1  UNL1       -0.0019
     27 C         142.2730  140.4988  167.5857 C.3     1  UNL1        0.0991
     28 N         141.4947  141.0840  168.7266 N.3     1  UNL1       -0.2690
     29 C         143.5915  142.3127  169.6451 C.3     1  UNL1        0.0188
     30 C         142.2136  141.7590  169.8569 C.3     1  UNL1        0.0724
     31 C         139.9973  140.9943  168.7372 C.3     1  UNL1        0.0724
     32 C         139.2812  140.5529  169.9791 C.3     1  UNL1        0.0188
@<TRIPOS>BOND
     1    29    30    1
     2    30    28    1
     3    28    31    1
     4    31    32    1
     5    28    27    1
     6    27     1    1
     7     1     2   ar
     8     2     3   ar
     9     3     4   ar
    10     4     5   ar
    11     5     6   ar
    12     5     7    1
    13     7     8    1
    14     8     9    1
    15     9    11    1
    16    11    12    1
    17    12    13    1
    18    13    14    1
    19    14    18    1
    20    18    19    1
    21    19    20    1
    22    20    21   ar
    23    21    22   ar
    24    22    23   ar
    25    23    24    1
    26    23    25   ar
    27    25    26   ar
    28    14    15    1
    29    15    16    1
    30    16    17    2
    31     9    10    1
    32     6     1   ar
    33    16    11   am
    34    10     4    1
    35    26    20   ar
@<TRIPOS>MOLECULE
*****
 32 35 0 0 0
SMALL
GASTEIGER

@<TRIPOS>ATOM
      1 C         141.4174  142.4970  167.5597 C.ar    1  UNL1       -0.0065
      2 C         142.5033  141.9543  166.6787 C.ar    1  UNL1       -0.0033
      3 C         142.4092  142.1098  165.1898 C.ar    1  UNL1       -0.0048
      4 C         141.2290  142.8081  164.5818 C.ar    1  UNL1       -0.0245
      5 C         140.1431  143.3507  165.4628 C.ar    1  UNL1       -0.0263
      6 C         140.2372  143.1952  166.9517 C.ar    1  UNL1       -0.0075
      7 C         138.9628  144.0490  164.8548 C.3     1  UNL1        0.0277
      8 C         138.8687  144.2046  163.3658 C.3     1  UNL1        0.0248
      9 C         139.9547  143.6618  162.4849 C.3     1  UNL1        0.0801
     10 C         141.1349  142.9636  163.0929 C.3     1  UNL1        0.0458
     11 N         139.8606  143.8174  160.9959 N.am    1  UNL1       -0.2783
     12 C         140.5872  144.9370  160.3114 C.3     1  UNL1        0.1107
     13 C         140.4930  145.0926  158.8224 C.3     1  UNL1        0.0942
     14 N         139.6722  144.1285  158.0181 N.3     1  UNL1       -0.2632
     15 C         138.9457  143.0090  158.7026 C.3     1  UNL1        0.1587
     16 C         139.0398  142.8534  160.1916 C.2     1  UNL1        0.2420
     17 O         138.3133  141.7339  160.8761 O.2     1  UNL1       -0.2734
     18 C         139.5781  144.2840  156.5291 C.3     1  UNL1        0.0773
     19 C         140.5403  145.1795  155.8063 C.3     1  UNL1        0.0437
     20 C         140.1171  146.5585  155.3949 C.ar    1  UNL1       -0.0206
     21 C         140.6161  147.1433  154.1069 C.ar    1  UNL1       -0.0019
     22 C         140.1929  148.5223  153.6956 C.ar    1  UNL1        0.0293
     23 C         139.2707  149.3166  154.5722 C.ar    1  UNL1        0.1401
     24 F         138.8475  150.6956  154.1609 F       1  UNL1       -0.2042
     25 C         138.7716  148.7318  155.8603 C.ar    1  UNL1        0.0293
     26 C         139.1948  147.3528  156.2716 C.ar    1  UNL1       -0.0019
     27 C         141.5115  142.3414  169.0486 C.3     1  UNL1        0.0991
     28 N         141.2700  141.0022  169.6796 N.3     1  UNL1       -0.2690
     29 C         142.5928  138.7853  169.9730 C.3     1  UNL1        0.0188
     30 C         142.4122  140.2414  170.2850 C.3     1  UNL1        0.0724
     31 C         139.8863  140.4237  169.7050 C.3     1  UNL1        0.0724
     32 C         139.2718  139.8931  168.4437 C.3     1  UNL1        0.0188
@<TRIPOS>BOND
     1    29    30    1
     2    30    28    1
     3    28    31    1
     4    31    32    1
     5    28    27    1
     6    27     1    1
     7     1     2   ar
     8     2     3   ar
     9     3     4   ar
    10     4     5   ar
    11     5     6   ar
    12     5     7    1
    13     7     8    1
    14     8     9    1
    15     9    11    1
    16    11    12    1
    17    12    13    1
    18    13    14    1
    19    14    18    1
    20    18    19    1
    21    19    20    1
    22    20    21   ar
    23    21    22   ar
    24    22    23   ar
    25    23    24    1
    26    23    25   ar
    27    25    26   ar
    28    14    15    1
    29    15    16    1
    30    16    17    2
    31     9    10    1
    32     6     1   ar
    33    16    11   am
    34    10     4    1
    35    26    20   ar
@<TRIPOS>MOLECULE
*****
 32 35 0 0 0
SMALL
GASTEIGER

@<TRIPOS>ATOM
      1 C         141.5938  141.9697  166.5180 C.ar    1  UNL1       -0.0065
      2 C         140.4243  142.1802  165.6027 C.ar    1  UNL1       -0.0033
      3 C         140.4989  141.7282  164.1744 C.ar    1  UNL1       -0.0048
      4 C         141.7430  141.0657  163.6614 C.ar    1  UNL1       -0.0245
      5 C         142.9125  140.8552  164.5767 C.ar    1  UNL1       -0.0263
      6 C         142.8379  141.3072  166.0051 C.ar    1  UNL1       -0.0075
      7 C         144.1567  140.1927  164.0638 C.3     1  UNL1        0.0277
      8 C         144.2314  139.7407  162.6354 C.3     1  UNL1        0.0248
      9 C         143.0618  139.9512  161.7201 C.3     1  UNL1        0.0801
     10 C         141.8177  140.6137  162.2330 C.3     1  UNL1        0.0458
     11 N         143.1364  139.4993  160.2917 N.am    1  UNL1       -0.2783
     12 C         142.6181  138.1457  159.9053 C.3     1  UNL1        0.1107
     13 C         142.6927  137.6937  158.4770 C.3     1  UNL1        0.0942
     14 N         143.2857  138.5953  157.4351 N.3     1  UNL1       -0.2632
     15 C         143.8040  139.9488  157.8215 C.3     1  UNL1        0.1587
     16 C         143.7294  140.4008  159.2498 C.2     1  UNL1        0.2420
     17 O         144.2477  141.7542  159.6362 O.2     1  UNL1       -0.2734
     18 C         143.3603  138.1433  156.0067 C.3     1  UNL1        0.0773
     19 C         144.1283  136.9048  155.6512 C.3     1  UNL1        0.0437
     20 C         143.4294  135.5787  155.5967 C.ar    1  UNL1       -0.0206
     21 C         142.5661  135.2336  154.4196 C.ar    1  UNL1       -0.0019
     22 C         141.8671  133.9075  154.3652 C.ar    1  UNL1        0.0293
     23 C         142.0315  132.9265  155.4879 C.ar    1  UNL1        0.1401
     24 F         141.3326  131.6004  155.4335 F       1  UNL1       -0.2042
     25 C         142.8949  133.2715  156.6651 C.ar    1  UNL1        0.0293
     26 C         143.5938  134.5976  156.7195 C.ar    1  UNL1       -0.0019
     27 C         141.5191  142.4217  167.9464 C.3     1  UNL1        0.0991
     28 N         141.7013  141.4304  169.0572 N.3     1  UNL1       -0.2690
     29 C         139.3919  140.2407  169.0999 C.3     1  UNL1        0.0188
     30 C         140.8901  140.1688  169.0771 C.3     1  UNL1        0.0724
     31 C         142.6946  141.7006  170.1483 C.3     1  UNL1        0.0724
     32 C         143.9857  142.3953  169.8319 C.3     1  UNL1        0.0188
@<TRIPOS>BOND
     1    29    30    1
     2    30    28    1
     3    28    31    1
     4    31    32    1
     5    28    27    1
     6    27     1    1
     7     1     2   ar
     8     2     3   ar
     9     3     4   ar
    10     4     5   ar
    11     5     6   ar
    12     5     7    1
    13     7     8    1
    14     8     9    1
    15     9    11    1
    16    11    12    1
    17    12    13    1
    18    13    14    1
    19    14    18    1
    20    18    19    1
    21    19    20    1
    22    20    21   ar
    23    21    22   ar
    24    22    23   ar
    25    23    24    1
    26    23    25   ar
    27    25    26   ar
    28    14    15    1
    29    15    16    1
    30    16    17    2
    31     9    10    1
    32     6     1   ar
    33    16    11   am
    34    10     4    1
    35    26    20   ar
@<TRIPOS>MOLECULE
*****
 32 35 0 0 0
SMALL
GASTEIGER

@<TRIPOS>ATOM
      1 C         141.9620  140.3534  167.3475 C.ar    1  UNL1       -0.0065
      2 C         140.8031  139.9073  166.5061 C.ar    1  UNL1       -0.0033
      3 C         140.5940  140.4987  165.1435 C.ar    1  UNL1       -0.0048
      4 C         141.5438  141.5360  164.6223 C.ar    1  UNL1       -0.0245
      5 C         142.7027  141.9821  165.4637 C.ar    1  UNL1       -0.0263
      6 C         142.9118  141.3908  166.8262 C.ar    1  UNL1       -0.0075
      7 C         143.6526  143.0195  164.9425 C.3     1  UNL1        0.0277
      8 C         143.4434  143.6108  163.5799 C.3     1  UNL1        0.0248
      9 C         142.2845  143.1647  162.7385 C.3     1  UNL1        0.0801
     10 C         141.3347  142.1273  163.2597 C.3     1  UNL1        0.0458
     11 N         142.0754  143.7560  161.3759 N.am    1  UNL1       -0.2783
     12 C         141.0957  144.8761  161.1867 C.3     1  UNL1        0.1107
     13 C         140.8866  145.4675  159.8241 C.3     1  UNL1        0.0942
     14 N         141.6571  144.9387  158.6508 N.3     1  UNL1       -0.2632
     15 C         142.6367  143.8186  158.8400 C.3     1  UNL1        0.1587
     16 C         142.8458  143.2273  160.2026 C.2     1  UNL1        0.2420
     17 O         143.8254  142.1073  160.3918 O.2     1  UNL1       -0.2734
     18 C         141.4480  145.5300  157.2882 C.3     1  UNL1        0.0773
     19 C         140.0601  145.8353  156.8081 C.3     1  UNL1        0.0437
     20 C         139.8006  147.0739  156.0027 C.ar    1  UNL1       -0.0206
     21 C         138.9180  148.1549  156.5525 C.ar    1  UNL1       -0.0019
     22 C         138.6585  149.3934  155.7471 C.ar    1  UNL1        0.0293
     23 C         139.2817  149.5510  154.3919 C.ar    1  UNL1        0.1401
     24 F         139.0223  150.7896  153.5865 F       1  UNL1       -0.2042
     25 C         140.1645  148.4700  153.8420 C.ar    1  UNL1        0.0293
     26 C         140.4239  147.2315  154.6474 C.ar    1  UNL1       -0.0019
     27 C         142.1711  139.7621  168.7100 C.3     1  UNL1        0.0991
     28 N         141.5478  140.4081  169.9117 N.3     1  UNL1       -0.2690
     29 C         138.9514  140.3921  169.8197 C.3     1  UNL1        0.0188
     30 C         140.2325  139.9102  170.4334 C.3     1  UNL1        0.0724
     31 C         142.2398  141.5522  170.5918 C.3     1  UNL1        0.0724
     32 C         142.1389  142.9357  170.0212 C.3     1  UNL1        0.0188
@<TRIPOS>BOND
     1    29    30    1
     2    30    28    1
     3    28    31    1
     4    31    32    1
     5    28    27    1
     6    27     1    1
     7     1     2   ar
     8     2     3   ar
     9     3     4   ar
    10     4     5   ar
    11     5     6   ar
    12     5     7    1
    13     7     8    1
    14     8     9    1
    15     9    11    1
    16    11    12    1
    17    12    13    1
    18    13    14    1
    19    14    18    1
    20    18    19    1
    21    19    20    1
    22    20    21   ar
    23    21    22   ar
    24    22    23   ar
    25    23    24    1
    26    23    25   ar
    27    25    26   ar
    28    14    15    1
    29    15    16    1
    30    16    17    2
    31     9    10    1
    32     6     1   ar
    33    16    11   am
    34    10     4    1
    35    26    20   ar
@<TRIPOS>MOLECULE
*****
 32 35 0 0 0
SMALL
GASTEIGER

@<TRIPOS>ATOM
      1 C         139.8235  140.4422  166.3512 C.ar    1  UNL1       -0.0065
      2 C         141.0157  140.0391  165.5351 C.ar    1  UNL1       -0.0033
      3 C         141.2211  140.6225  164.1685 C.ar    1  UNL1       -0.0048
      4 C         140.2343  141.6089  163.6180 C.ar    1  UNL1       -0.0245
      5 C         139.0421  142.0120  164.4341 C.ar    1  UNL1       -0.0263
      6 C         138.8367  141.4287  165.8007 C.ar    1  UNL1       -0.0075
      7 C         138.0552  142.9985  163.8836 C.3     1  UNL1        0.0277
      8 C         138.2606  143.5819  162.5171 C.3     1  UNL1        0.0248
      9 C         139.4530  143.1788  161.7010 C.3     1  UNL1        0.0801
     10 C         140.4398  142.1923  162.2515 C.3     1  UNL1        0.0458
     11 N         139.6584  143.7621  160.3344 N.am    1  UNL1       -0.2783
     12 C         139.3995  142.9268  159.1157 C.3     1  UNL1        0.1107
     13 C         139.6049  143.5101  157.7491 C.3     1  UNL1        0.0942
     14 N         140.0693  144.9288  157.6013 N.3     1  UNL1       -0.2632
     15 C         140.3281  145.7641  158.8200 C.3     1  UNL1        0.1587
     16 C         140.1227  145.1807  160.1866 C.2     1  UNL1        0.2420
     17 O         140.3816  146.0160  161.4053 O.2     1  UNL1       -0.2734
     18 C         140.2747  145.5122  156.2347 C.3     1  UNL1        0.0773
     19 C         139.1433  146.2094  155.5390 C.3     1  UNL1        0.0437
     20 C         139.0968  147.7082  155.4996 C.ar    1  UNL1       -0.0206
     21 C         138.5490  148.4725  156.6682 C.ar    1  UNL1       -0.0019
     22 C         138.5025  149.9713  156.6288 C.ar    1  UNL1        0.0293
     23 C         139.0037  150.7057  155.4208 C.ar    1  UNL1        0.1401
     24 F         138.9572  152.2044  155.3813 F       1  UNL1       -0.2042
     25 C         139.5515  149.9413  154.2521 C.ar    1  UNL1        0.0293
     26 C         139.5980  148.4426  154.2915 C.ar    1  UNL1       -0.0019
     27 C         139.6180  139.8589  167.7177 C.3     1  UNL1        0.0991
     28 N         140.2681  140.4952  168.9103 N.3     1  UNL1       -0.2690
     29 C         142.5982  139.3543  169.0488 C.3     1  UNL1        0.0188
     30 C         141.3001  139.7399  169.6942 C.3     1  UNL1        0.0724
     31 C         139.8862  141.8870  169.3192 C.3     1  UNL1        0.0724
     32 C         140.8962  142.9936  169.2473 C.3     1  UNL1        0.0188
@<TRIPOS>BOND
     1    29    30    1
     2    30    28    1
     3    28    31    1
     4    31    32    1
     5    28    27    1
     6    27     1    1
     7     1     2   ar
     8     2     3   ar
     9     3     4   ar
    10     4     5   ar
    11     5     6   ar
    12     5     7    1
    13     7     8    1
    14     8     9    1
    15     9    11    1
    16    11    12    1
    17    12    13    1
    18    13    14    1
    19    14    18    1
    20    18    19    1
    21    19    20    1
    22    20    21   ar
    23    21    22   ar
    24    22    23   ar
    25    23    24    1
    26    23    25   ar
    27    25    26   ar
    28    14    15    1
    29    15    16    1
    30    16    17    2
    31     9    10    1
    32     6     1   ar
    33    16    11   am
    34    10     4    1
    35    26    20   ar
@<TRIPOS>MOLECULE
*****
 32 35 0 0 0
SMALL
GASTEIGER

@<TRIPOS>ATOM
      1 C         142.0282  135.9483  156.1029 C.ar    1  UNL1       -0.0065
      2 C         140.6500  136.4410  155.7749 C.ar    1  UNL1       -0.0033
      3 C         140.0386  137.5497  156.5794 C.ar    1  UNL1       -0.0048
      4 C         140.8055  138.1656  157.7118 C.ar    1  UNL1       -0.0245
      5 C         142.1838  137.6729  158.0397 C.ar    1  UNL1       -0.0263
      6 C         142.7951  136.5643  157.2353 C.ar    1  UNL1       -0.0075
      7 C         142.9508  138.2889  159.1722 C.3     1  UNL1        0.0277
      8 C         142.3394  139.3975  159.9766 C.3     1  UNL1        0.0248
      9 C         140.9611  139.8902  159.6486 C.3     1  UNL1        0.0801
     10 C         140.1942  139.2743  158.5162 C.3     1  UNL1        0.0458
     11 N         140.3498  140.9989  160.4531 N.am    1  UNL1       -0.2783
     12 C         140.5512  142.4261  160.0377 C.3     1  UNL1        0.1107
     13 C         139.9399  143.5348  160.8421 C.3     1  UNL1        0.0942
     14 N         139.1271  143.2162  162.0619 N.3     1  UNL1       -0.2632
     15 C         138.9256  141.7890  162.4773 C.3     1  UNL1        0.1587
     16 C         139.5370  140.6804  161.6728 C.2     1  UNL1        0.2420
     17 O         139.3356  139.2532  162.0882 O.2     1  UNL1       -0.2734
     18 C         138.5157  144.3249  162.8664 C.3     1  UNL1        0.0773
     19 C         139.2724  144.9234  164.0150 C.3     1  UNL1        0.0437
     20 C         140.6971  144.5252  164.2634 C.ar    1  UNL1       -0.0206
     21 C         141.0039  143.3260  165.1106 C.ar    1  UNL1       -0.0019
     22 C         142.4286  142.9278  165.3590 C.ar    1  UNL1        0.0293
     23 C         143.5465  143.7288  164.7602 C.ar    1  UNL1        0.1401
     24 F         144.9712  143.3307  165.0086 F       1  UNL1       -0.2042
     25 C         143.2397  144.9281  163.9129 C.ar    1  UNL1        0.0293
     26 C         141.8150  145.3263  163.6646 C.ar    1  UNL1       -0.0019
     27 C         142.6396  134.8396  155.2984 C.3     1  UNL1        0.0991
     28 N         142.2978  133.4122  155.6075 N.3     1  UNL1       -0.2690
     29 C         141.1605  133.1049  153.2918 C.3     1  UNL1        0.0188
     30 C         141.3727  132.6503  154.7055 C.3     1  UNL1        0.0724
     31 C         142.8812  132.7466  156.8186 C.3     1  UNL1        0.0724
     32 C         144.2466  133.1349  157.3032 C.3     1  UNL1        0.0188
@<TRIPOS>BOND
     1    29    30    1
     2    30    28    1
     3    28    31    1
     4    31    32    1
     5    28    27    1
     6    27     1    1
     7     1     2   ar
     8     2     3   ar
     9     3     4   ar
    10     4     5   ar
    11     5     6   ar
    12     5     7    1
    13     7     8    1
    14     8     9    1
    15     9    11    1
    16    11    12    1
    17    12    13    1
    18    13    14    1
    19    14    18    1
    20    18    19    1
    21    19    20    1
    22    20    21   ar
    23    21    22   ar
    24    22    23   ar
    25    23    24    1
    26    23    25   ar
    27    25    26   ar
    28    14    15    1
    29    15    16    1
    30    16    17    2
    31     9    10    1
    32     6     1   ar
    33    16    11   am
    34    10     4    1
    35    26    20   ar
@<TRIPOS>MOLECULE
*****
 32 35 0 0 0
SMALL
GASTEIGER

@<TRIPOS>ATOM
      1 C         142.6065  140.7451  167.4487 C.ar    1  UNL1       -0.0065
      2 C         142.7233  141.9391  166.5484 C.ar    1  UNL1       -0.0033
      3 C         142.5599  141.7795  165.0659 C.ar    1  UNL1       -0.0048
      4 C         142.2797  140.4259  164.4837 C.ar    1  UNL1       -0.0245
      5 C         142.1628  139.2318  165.3839 C.ar    1  UNL1       -0.0263
      6 C         142.3263  139.3914  166.8664 C.ar    1  UNL1       -0.0075
      7 C         141.8826  137.8781  164.8017 C.3     1  UNL1        0.0277
      8 C         141.7192  137.7185  163.3192 C.3     1  UNL1        0.0248
      9 C         141.8360  138.9126  162.4189 C.3     1  UNL1        0.0801
     10 C         142.1162  140.2663  163.0011 C.3     1  UNL1        0.0458
     11 N         141.6726  138.7530  160.9364 N.am    1  UNL1       -0.2783
     12 C         140.3006  138.7415  160.3300 C.3     1  UNL1        0.1107
     13 C         140.1372  138.5819  158.8475 C.3     1  UNL1        0.0942
     14 N         141.3457  138.4338  157.9714 N.3     1  UNL1       -0.2632
     15 C         142.7176  138.4453  158.5778 C.3     1  UNL1        0.1587
     16 C         142.8810  138.6049  160.0603 C.2     1  UNL1        0.2420
     17 O         144.2529  138.6164  160.6667 O.2     1  UNL1       -0.2734
     18 C         141.1823  138.2742  156.4889 C.3     1  UNL1        0.0773
     19 C         140.0587  137.4435  155.9433 C.3     1  UNL1        0.0437
     20 C         138.8605  138.1096  155.3347 C.ar    1  UNL1       -0.0206
     21 C         138.5410  139.5350  155.6752 C.ar    1  UNL1       -0.0019
     22 C         137.3428  140.2011  155.0666 C.ar    1  UNL1        0.0293
     23 C         136.4640  139.4418  154.1173 C.ar    1  UNL1        0.1401
     24 F         135.2657  140.1079  153.5087 F       1  UNL1       -0.2042
     25 C         136.7834  138.0163  153.7767 C.ar    1  UNL1        0.0293
     26 C         137.9817  137.3501  154.3854 C.ar    1  UNL1       -0.0019
     27 C         142.7699  140.9047  168.9312 C.3     1  UNL1        0.0991
     28 N         141.5769  141.2051  169.7892 N.3     1  UNL1       -0.2690
     29 C         139.1553  140.2976  169.5384 C.3     1  UNL1        0.0188
     30 C         140.5553  140.1390  170.0533 C.3     1  UNL1        0.0724
     31 C         141.4053  142.5718  170.3832 C.3     1  UNL1        0.0724
     32 C         140.6468  143.6260  169.6326 C.3     1  UNL1        0.0188
@<TRIPOS>BOND
     1    29    30    1
     2    30    28    1
     3    28    31    1
     4    31    32    1
     5    28    27    1
     6    27     1    1
     7     1     2   ar
     8     2     3   ar
     9     3     4   ar
    10     4     5   ar
    11     5     6   ar
    12     5     7    1
    13     7     8    1
    14     8     9    1
    15     9    11    1
    16    11    12    1
    17    12    13    1
    18    13    14    1
    19    14    18    1
    20    18    19    1
    21    19    20    1
    22    20    21   ar
    23    21    22   ar
    24    22    23   ar
    25    23    24    1
    26    23    25   ar
    27    25    26   ar
    28    14    15    1
    29    15    16    1
    30    16    17    2
    31     9    10    1
    32     6     1   ar
    33    16    11   am
    34    10     4    1
    35    26    20   ar
