@<TRIPOS>MOLECULE
*****
 32 35 0 0 0
SMALL
GASTEIGER

@<TRIPOS>ATOM
      1 C         142.1291  139.2543  169.7349 C.ar    1  UNL1        0.0505
      2 C         140.8110  139.8413  170.1451 C.ar    1  UNL1        0.0170
      3 C         140.0093  140.6437  169.1635 C.ar    1  UNL1        0.0307
      4 C         140.5257  140.8592  167.7718 C.ar    1  UNL1        0.1401
      5 F         139.7240  141.6617  166.7902 F       1  UNL1       -0.2044
      6 C         141.8437  140.2723  167.3616 C.ar    1  UNL1        0.0523
      7 C         142.6454  139.4699  168.3430 C.ar    1  UNL1        0.0167
      8 C         142.3600  140.4878  165.9698 C.3     1  UNL1        0.2179
      9 C         142.8130  141.7635  166.6161 C.3     1  UNL1        0.0602
     10 C         143.0337  141.1465  164.8025 C.3     1  UNL1        0.1808
     11 N         143.0750  140.4546  163.4723 N.ar    1  UNL1       -0.2384
     12 N         143.6630  140.8537  162.1513 N.ar    1  UNL1       -0.1584
     13 C         143.3941  139.7498  161.1719 C.ar    1  UNL1        0.1704
     14 C         142.6400  138.6686  161.8875 C.ar    1  UNL1        0.0576
     15 C         142.4428  139.1042  163.3093 C.ar    1  UNL1        0.1615
     16 C         141.7692  138.4456  164.4766 C.2     1  UNL1        0.3305
     17 N         141.1369  137.0951  164.3136 N.pl3   1  UNL1       -0.2452
     18 N         141.7278  139.1375  165.8068 N.2     1  UNL1       -0.0666
     19 H         141.1641  136.6410  163.4405 H       1  UNL1        0.2885
     20 H         140.6948  136.6629  165.0797 H       1  UNL1        0.2885
     21 C         143.8069  139.7306  159.7299 C.1     1  UNL1        0.1216
     22 N         144.2197  139.7113  158.2879 N.1     1  UNL1       -0.1892
     23 C         143.8313  137.3551  170.2303 C.2     1  UNL1        0.2705
     24 O         143.9301  137.0607  168.7628 O.2     1  UNL1       -0.2680
     25 N         142.9308  138.4519  170.7163 N.am    1  UNL1       -0.2791
     26 H         142.8660  138.6451  171.6795 H       1  UNL1        0.1552
     27 C         147.2738  136.0274  174.0075 C.3     1  UNL1        0.0950
     28 C         146.2154  135.9424  172.9480 C.ar    1  UNL1        0.2065
     29 N         145.6683  137.0916  172.1541 N.ar    1  UNL1       -0.2073
     30 C         144.6331  136.5527  171.2119 C.ar    1  UNL1        0.1750
     31 C         144.5402  135.0706  171.4234 C.ar    1  UNL1        0.2048
     32 O         145.5181  134.6934  172.4964 O.2     1  UNL1       -0.4351
@<TRIPOS>BOND
     1    27    28    1
     2    28    29   ar
     3    29    30   ar
     4    30    23    1
     5    23    24    2
     6    23    25   am
     7    25     1    1
     8     1     2   ar
     9     2     3   ar
    10     3     4   ar
    11     4     5    1
    12     4     6   ar
    13     6     8    1
    14     8     9    1
    15     8    10    1
    16    10    11    1
    17    11    12   ar
    18    12    13   ar
    19    13    21    1
    20    21    22    3
    21    13    14   ar
    22    14    15   ar
    23    15    16    1
    24    16    17    1
    25    16    18    2
    26     6     7   ar
    27    30    31   ar
    28    31    32   ar
    29    32    28   ar
    30     7     1   ar
    31    18     8    1
    32    15    11   ar
    33    25    26    1
    34    17    19    1
    35    17    20    1
@<TRIPOS>MOLECULE
*****
 32 35 0 0 0
SMALL
GASTEIGER

@<TRIPOS>ATOM
      1 C         141.1788  139.7006  160.5383 C.ar    1  UNL1        0.0505
      2 C         140.0886  138.7909  160.0547 C.ar    1  UNL1        0.0170
      3 C         139.2390  138.0472  161.0422 C.ar    1  UNL1        0.0307
      4 C         139.4796  138.2134  162.5134 C.ar    1  UNL1        0.1401
      5 F         138.6300  137.4698  163.5010 F       1  UNL1       -0.2044
      6 C         140.5697  139.1231  162.9971 C.ar    1  UNL1        0.0523
      7 C         141.4193  139.8667  162.0096 C.ar    1  UNL1        0.0167
      8 C         140.8102  139.2892  164.4684 C.3     1  UNL1        0.2179
      9 C         141.5401  138.0007  164.2290 C.3     1  UNL1        0.0602
     10 C         141.3043  139.0077  165.8565 C.3     1  UNL1        0.1808
     11 N         140.9849  139.9571  166.9731 N.ar    1  UNL1       -0.2384
     12 N         141.3321  139.9435  168.4323 N.ar    1  UNL1       -0.1584
     13 C         140.7333  141.1658  169.0626 C.ar    1  UNL1        0.1704
     14 C         140.0160  141.9348  167.9930 C.ar    1  UNL1        0.0576
     15 C         140.1715  141.1878  166.7016 C.ar    1  UNL1        0.1615
     16 C         139.6775  141.4692  165.3135 C.2     1  UNL1        0.3305
     17 N         138.8640  142.6999  165.0420 N.pl3   1  UNL1       -0.2452
     18 N         139.9969  140.5198  164.1969 N.2     1  UNL1       -0.0666
     19 H         138.6544  143.3230  165.7748 H       1  UNL1        0.2885
     20 H         138.5398  142.8846  164.1309 H       1  UNL1        0.2885
     21 C         140.8341  141.5515  170.5087 C.1     1  UNL1        0.1216
     22 N         140.9349  141.9371  171.9547 N.1     1  UNL1       -0.1892
     23 C         143.4245  139.9782  159.2617 C.2     1  UNL1        0.2705
     24 O         143.9711  138.7684  159.9601 O.2     1  UNL1       -0.2680
     25 N         142.0284  140.4443  159.5509 N.am    1  UNL1       -0.2791
     26 H         141.6697  141.2383  159.0925 H       1  UNL1        0.1552
     27 C         146.4519  141.1010  155.0837 C.3     1  UNL1        0.0950
     28 C         145.6656  141.2379  156.3538 C.ar    1  UNL1        0.2065
     29 N         144.9096  140.1423  157.0453 N.ar    1  UNL1       -0.2073
     30 C         144.2741  140.7219  158.2742 C.ar    1  UNL1        0.1750
     31 C         144.6374  142.1756  158.3423 C.ar    1  UNL1        0.2048
     32 O         145.4973  142.4946  157.1555 O.2     1  UNL1       -0.4351
@<TRIPOS>BOND
     1    27    28    1
     2    28    29   ar
     3    29    30   ar
     4    30    23    1
     5    23    24    2
     6    23    25   am
     7    25     1    1
     8     1     2   ar
     9     2     3   ar
    10     3     4   ar
    11     4     5    1
    12     4     6   ar
    13     6     8    1
    14     8     9    1
    15     8    10    1
    16    10    11    1
    17    11    12   ar
    18    12    13   ar
    19    13    21    1
    20    21    22    3
    21    13    14   ar
    22    14    15   ar
    23    15    16    1
    24    16    17    1
    25    16    18    2
    26     6     7   ar
    27    30    31   ar
    28    31    32   ar
    29    32    28   ar
    30     7     1   ar
    31    18     8    1
    32    15    11   ar
    33    25    26    1
    34    17    19    1
    35    17    20    1
@<TRIPOS>MOLECULE
*****
 32 35 0 0 0
SMALL
GASTEIGER

@<TRIPOS>ATOM
      1 C         143.4825  141.7789  169.5131 C.ar    1  UNL1        0.0505
      2 C         143.0093  140.5287  170.1936 C.ar    1  UNL1        0.0170
      3 C         141.8527  139.7588  169.6282 C.ar    1  UNL1        0.0307
      4 C         141.1695  140.2391  168.3822 C.ar    1  UNL1        0.1401
      5 F         140.0129  139.4692  167.8167 F       1  UNL1       -0.2044
      6 C         141.6427  141.4892  167.7017 C.ar    1  UNL1        0.0523
      7 C         142.7992  142.2591  168.2670 C.ar    1  UNL1        0.0167
      8 C         140.9593  141.9695  166.4557 C.3     1  UNL1        0.2179
      9 C         140.3145  142.8679  167.4692 C.3     1  UNL1        0.0602
     10 C         140.0520  142.7618  165.5617 C.3     1  UNL1        0.1808
     11 N         140.0269  142.4889  164.0870 N.ar    1  UNL1       -0.2384
     12 N         139.2423  143.1032  162.9658 N.ar    1  UNL1       -0.1584
     13 C         139.6395  142.4178  161.6921 C.ar    1  UNL1        0.1704
     14 C         140.6697  141.3798  162.0261 C.ar    1  UNL1        0.0576
     15 C         140.9090  141.4238  163.5062 C.ar    1  UNL1        0.1615
     16 C         141.8163  140.6315  164.4002 C.2     1  UNL1        0.3305
     17 N         142.6985  139.5664  163.8194 N.pl3   1  UNL1       -0.2452
     18 N         141.8414  140.9044  165.8749 N.2     1  UNL1       -0.0666
     19 H         142.6820  139.3873  162.8514 H       1  UNL1        0.2885
     20 H         143.2940  139.0464  164.4061 H       1  UNL1        0.2885
     21 C         139.1012  142.7176  160.3245 C.1     1  UNL1        0.1216
     22 N         138.5629  143.0175  158.9569 N.1     1  UNL1       -0.1892
     23 C         144.3948  143.8177  170.8402 C.2     1  UNL1        0.2705
     24 O         142.9939  144.3167  171.0365 O.2     1  UNL1       -0.2680
     25 N         144.6390  142.5488  170.0784 N.am    1  UNL1       -0.2791
     26 H         145.5585  142.2213  169.9496 H       1  UNL1        0.1552
     27 C         147.2652  147.1156  173.8009 C.3     1  UNL1        0.0950
     28 C         146.8707  146.1034  172.7664 C.ar    1  UNL1        0.2065
     29 N         145.4862  145.5758  172.5321 N.ar    1  UNL1       -0.2073
     30 C         145.5513  144.5876  171.4055 C.ar    1  UNL1        0.1750
     31 C         146.9760  144.5044  170.9436 C.ar    1  UNL1        0.2048
     32 O         147.7914  145.4412  171.7846 O.2     1  UNL1       -0.4351
@<TRIPOS>BOND
     1    27    28    1
     2    28    29   ar
     3    29    30   ar
     4    30    23    1
     5    23    24    2
     6    23    25   am
     7    25     1    1
     8     1     2   ar
     9     2     3   ar
    10     3     4   ar
    11     4     5    1
    12     4     6   ar
    13     6     8    1
    14     8     9    1
    15     8    10    1
    16    10    11    1
    17    11    12   ar
    18    12    13   ar
    19    13    21    1
    20    21    22    3
    21    13    14   ar
    22    14    15   ar
    23    15    16    1
    24    16    17    1
    25    16    18    2
    26     6     7   ar
    27    30    31   ar
    28    31    32   ar
    29    32    28   ar
    30     7     1   ar
    31    18     8    1
    32    15    11   ar
    33    25    26    1
    34    17    19    1
    35    17    20    1
@<TRIPOS>MOLECULE
*****
 32 35 0 0 0
SMALL
GASTEIGER

@<TRIPOS>ATOM
      1 C         139.7552  139.2384  160.5305 C.ar    1  UNL1        0.0505
      2 C         138.3448  139.4473  160.0645 C.ar    1  UNL1        0.0170
      3 C         137.3624  140.1623  160.9440 C.ar    1  UNL1        0.0307
      4 C         137.7904  140.6684  162.2897 C.ar    1  UNL1        0.1401
      5 F         136.8079  141.3835  163.1692 F       1  UNL1       -0.2044
      6 C         139.2007  140.4596  162.7557 C.ar    1  UNL1        0.0523
      7 C         140.1832  139.7446  161.8762 C.ar    1  UNL1        0.0167
      8 C         139.6286  140.9658  164.1014 C.3     1  UNL1        0.2179
      9 C         140.2413  142.0149  163.2215 C.3     1  UNL1        0.0602
     10 C         140.2694  141.8364  165.1414 C.3     1  UNL1        0.1808
     11 N         140.1488  141.4820  166.5939 N.ar    1  UNL1       -0.2384
     12 N         140.6696  142.1440  167.8351 N.ar    1  UNL1       -0.1584
     13 C         140.2302  141.3282  169.0147 C.ar    1  UNL1        0.1704
     14 C         139.4378  140.1621  168.5026 C.ar    1  UNL1        0.0576
     15 C         139.3875  140.2571  167.0064 C.ar    1  UNL1        0.1615
     16 C         138.7468  139.3866  165.9664 C.2     1  UNL1        0.3305
     17 N         137.9855  138.1617  166.3789 N.pl3   1  UNL1       -0.2452
     18 N         138.8674  139.7410  164.5138 N.2     1  UNL1       -0.0666
     19 H         137.9064  137.9291  167.3322 H       1  UNL1        0.2885
     20 H         137.5650  137.5904  165.6962 H       1  UNL1        0.2885
     21 C         140.5305  141.6262  170.4538 C.1     1  UNL1        0.1216
     22 N         140.8308  141.9242  171.8929 N.1     1  UNL1       -0.1892
     23 C         141.2889  139.2048  158.4337 C.2     1  UNL1        0.2705
     24 O         140.8577  140.6011  158.0958 O.2     1  UNL1       -0.2680
     25 N         140.7377  138.5235  159.6510 N.am    1  UNL1       -0.2791
     26 H         141.0207  137.6070  159.8728 H       1  UNL1        0.1552
     27 C         143.8454  135.3920  155.8244 C.3     1  UNL1        0.0950
     28 C         143.4465  136.7372  156.3549 C.ar    1  UNL1        0.2065
     29 N         142.3039  137.0142  157.2865 N.ar    1  UNL1       -0.2073
     30 C         142.2714  138.4897  157.5542 C.ar    1  UNL1        0.1750
     31 C         143.3938  139.1247  156.7881 C.ar    1  UNL1        0.2048
     32 O         144.1201  138.0416  156.0469 O.2     1  UNL1       -0.4351
@<TRIPOS>BOND
     1    27    28    1
     2    28    29   ar
     3    29    30   ar
     4    30    23    1
     5    23    24    2
     6    23    25   am
     7    25     1    1
     8     1     2   ar
     9     2     3   ar
    10     3     4   ar
    11     4     5    1
    12     4     6   ar
    13     6     8    1
    14     8     9    1
    15     8    10    1
    16    10    11    1
    17    11    12   ar
    18    12    13   ar
    19    13    21    1
    20    21    22    3
    21    13    14   ar
    22    14    15   ar
    23    15    16    1
    24    16    17    1
    25    16    18    2
    26     6     7   ar
    27    30    31   ar
    28    31    32   ar
    29    32    28   ar
    30     7     1   ar
    31    18     8    1
    32    15    11   ar
    33    25    26    1
    34    17    19    1
    35    17    20    1
@<TRIPOS>MOLECULE
*****
 32 35 0 0 0
SMALL
GASTEIGER

@<TRIPOS>ATOM
      1 C         142.1259  139.3786  169.7894 C.ar    1  UNL1        0.0505
      2 C         140.9171  140.1152  170.2855 C.ar    1  UNL1        0.0170
      3 C         140.1032  140.9454  169.3376 C.ar    1  UNL1        0.0307
      4 C         140.4983  141.0389  167.8936 C.ar    1  UNL1        0.1401
      5 F         139.6845  141.8691  166.9457 F       1  UNL1       -0.2044
      6 C         141.7071  140.3024  167.3975 C.ar    1  UNL1        0.0523
      7 C         142.5209  139.4722  168.3453 C.ar    1  UNL1        0.0167
      8 C         142.1021  140.3960  165.9534 C.3     1  UNL1        0.2179
      9 C         141.2304  139.1761  165.9064 C.3     1  UNL1        0.0602
     10 C         142.1943  140.0659  164.4930 C.3     1  UNL1        0.1808
     11 N         143.0210  140.9232  163.5811 N.ar    1  UNL1       -0.2384
     12 N         143.2986  140.8458  162.1091 N.ar    1  UNL1       -0.1584
     13 C         144.2046  141.9853  161.7477 C.ar    1  UNL1        0.1704
     14 C         144.4870  142.7670  162.9964 C.ar    1  UNL1        0.0576
     15 C         143.7554  142.1106  164.1296 C.ar    1  UNL1        0.1615
     16 C         143.6632  142.4406  165.5899 C.2     1  UNL1        0.3305
     17 N         144.3976  143.6280  166.1383 N.pl3   1  UNL1       -0.2452
     18 N         142.8365  141.5833  166.5018 N.2     1  UNL1       -0.0666
     19 H         144.9402  144.1907  165.5398 H       1  UNL1        0.2885
     20 H         144.3371  143.8446  167.0968 H       1  UNL1        0.2885
     21 C         144.7352  142.2897  160.3781 C.1     1  UNL1        0.1216
     22 N         145.2658  142.5942  159.0085 N.1     1  UNL1       -0.1892
     23 C         143.8059  137.4422  170.2117 C.2     1  UNL1        0.2705
     24 O         143.8581  137.1661  168.7382 O.2     1  UNL1       -0.2680
     25 N         142.9398  138.5484  170.7372 N.am    1  UNL1       -0.2791
     26 H         142.9055  138.7296  171.7043 H       1  UNL1        0.1552
     27 C         147.2562  136.0130  173.9444 C.3     1  UNL1        0.0950
     28 C         146.2056  135.9551  172.8753 C.ar    1  UNL1        0.2065
     29 N         145.6378  137.1282  172.1327 N.ar    1  UNL1       -0.2073
     30 C         144.6197  136.6120  171.1596 C.ar    1  UNL1        0.1750
     31 C         144.5584  135.1199  171.3006 C.ar    1  UNL1        0.2048
     32 O         145.5385  134.7139  172.3610 O.2     1  UNL1       -0.4351
@<TRIPOS>BOND
     1    27    28    1
     2    28    29   ar
     3    29    30   ar
     4    30    23    1
     5    23    24    2
     6    23    25   am
     7    25     1    1
     8     1     2   ar
     9     2     3   ar
    10     3     4   ar
    11     4     5    1
    12     4     6   ar
    13     6     8    1
    14     8     9    1
    15     8    10    1
    16    10    11    1
    17    11    12   ar
    18    12    13   ar
    19    13    21    1
    20    21    22    3
    21    13    14   ar
    22    14    15   ar
    23    15    16    1
    24    16    17    1
    25    16    18    2
    26     6     7   ar
    27    30    31   ar
    28    31    32   ar
    29    32    28   ar
    30     7     1   ar
    31    18     8    1
    32    15    11   ar
    33    25    26    1
    34    17    19    1
    35    17    20    1
@<TRIPOS>MOLECULE
*****
 32 35 0 0 0
SMALL
GASTEIGER

@<TRIPOS>ATOM
      1 C         139.4540  139.1444  160.3299 C.ar    1  UNL1        0.0505
      2 C         140.7117  138.4643  159.8764 C.ar    1  UNL1        0.0170
      3 C         141.7484  138.0572  160.8811 C.ar    1  UNL1        0.0307
      4 C         141.5274  138.3303  162.3394 C.ar    1  UNL1        0.1401
      5 F         142.5642  137.9232  163.3442 F       1  UNL1       -0.2044
      6 C         140.2698  139.0103  162.7929 C.ar    1  UNL1        0.0523
      7 C         139.2330  139.4174  161.7883 C.ar    1  UNL1        0.0167
      8 C         140.0489  139.2833  164.2513 C.3     1  UNL1        0.2179
      9 C         139.4067  137.9323  164.1390 C.3     1  UNL1        0.0602
     10 C         139.6049  139.0870  165.6707 C.3     1  UNL1        0.1808
     11 N         139.8798  140.1469  166.6958 N.ar    1  UNL1       -0.2384
     12 N         139.5649  140.2330  168.1598 N.ar    1  UNL1       -0.1584
     13 C         140.0891  141.5423  168.6705 C.ar    1  UNL1        0.1704
     14 C         140.7281  142.2655  167.5221 C.ar    1  UNL1        0.0576
     15 C         140.5987  141.4031  166.3017 C.ar    1  UNL1        0.1615
     16 C         141.0427  141.5993  164.8824 C.2     1  UNL1        0.3305
     17 N         141.7615  142.8554  164.4882 N.pl3   1  UNL1       -0.2452
     18 N         140.7677  140.5394  163.8572 N.2     1  UNL1       -0.0666
     19 H         141.9420  143.5511  165.1611 H       1  UNL1        0.2885
     20 H         142.0529  142.9842  163.5567 H       1  UNL1        0.2885
     21 C         139.9915  142.0410  170.0818 C.1     1  UNL1        0.1216
     22 N         139.8940  142.5396  171.4932 N.1     1  UNL1       -0.1892
     23 C         138.6165  140.7887  158.5010 C.2     1  UNL1        0.2705
     24 O         139.8527  141.6190  158.6815 O.2     1  UNL1       -0.2680
     25 N         138.4172  139.5514  159.3253 N.am    1  UNL1       -0.2791
     26 H         137.6059  139.0065  159.2068 H       1  UNL1        0.1552
     27 C         134.4121  140.7038  155.3079 C.3     1  UNL1        0.0950
     28 C         135.6472  141.1567  156.0287 C.ar    1  UNL1        0.2065
     29 N         136.4249  140.3584  157.0326 N.ar    1  UNL1       -0.2073
     30 C         137.5797  141.1958  157.4963 C.ar    1  UNL1        0.1750
     31 C         137.5157  142.5116  156.7792 C.ar    1  UNL1        0.2048
     32 O         136.3214  142.4875  155.8721 O.2     1  UNL1       -0.4351
@<TRIPOS>BOND
     1    27    28    1
     2    28    29   ar
     3    29    30   ar
     4    30    23    1
     5    23    24    2
     6    23    25   am
     7    25     1    1
     8     1     2   ar
     9     2     3   ar
    10     3     4   ar
    11     4     5    1
    12     4     6   ar
    13     6     8    1
    14     8     9    1
    15     8    10    1
    16    10    11    1
    17    11    12   ar
    18    12    13   ar
    19    13    21    1
    20    21    22    3
    21    13    14   ar
    22    14    15   ar
    23    15    16    1
    24    16    17    1
    25    16    18    2
    26     6     7   ar
    27    30    31   ar
    28    31    32   ar
    29    32    28   ar
    30     7     1   ar
    31    18     8    1
    32    15    11   ar
    33    25    26    1
    34    17    19    1
    35    17    20    1
@<TRIPOS>MOLECULE
*****
 32 35 0 0 0
SMALL
GASTEIGER

@<TRIPOS>ATOM
      1 C         140.8146  141.8662  160.2006 C.ar    1  UNL1        0.0505
      2 C         139.4670  142.1619  159.6118 C.ar    1  UNL1        0.0170
      3 C         138.3396  142.5978  160.5001 C.ar    1  UNL1        0.0307
      4 C         138.5599  142.7380  161.9772 C.ar    1  UNL1        0.1401
      5 F         137.4325  143.1739  162.8655 F       1  UNL1       -0.2044
      6 C         139.9074  142.4423  162.5660 C.ar    1  UNL1        0.0523
      7 C         141.0347  142.0064  161.6778 C.ar    1  UNL1        0.0167
      8 C         140.1275  142.5825  164.0431 C.3     1  UNL1        0.2179
      9 C         140.5710  143.9399  163.5837 C.3     1  UNL1        0.0602
     10 C         140.5017  143.1942  165.3607 C.3     1  UNL1        0.1808
     11 N         140.3559  142.3999  166.6247 N.ar    1  UNL1       -0.2384
     12 N         140.6420  142.7341  168.0587 N.ar    1  UNL1       -0.1584
     13 C         140.2988  141.5346  168.8915 C.ar    1  UNL1        0.1704
     14 C         139.8007  140.4591  167.9722 C.ar    1  UNL1        0.0576
     15 C         139.8360  140.9939  166.5712 C.ar    1  UNL1        0.1615
     16 C         139.4618  140.3822  165.2536 C.2     1  UNL1        0.3305
     17 N         138.9419  138.9763  165.2001 N.pl3   1  UNL1       -0.2452
     18 N         139.6076  141.1766  163.9896 N.2     1  UNL1       -0.0666
     19 H         138.8462  138.4549  166.0297 H       1  UNL1        0.2885
     20 H         138.6963  138.5748  164.3354 H       1  UNL1        0.2885
     21 C         140.4307  141.4291  170.3820 C.1     1  UNL1        0.1216
     22 N         140.5625  141.3236  171.8724 N.1     1  UNL1       -0.1892
     23 C         143.0054  142.4104  158.9145 C.2     1  UNL1        0.2705
     24 O         142.9415  143.8265  159.4049 O.2     1  UNL1       -0.2680
     25 N         141.9420  141.4303  159.3124 N.am    1  UNL1       -0.2791
     26 H         141.9839  140.5008  158.9905 H       1  UNL1        0.1552
     27 C         147.5601  142.3515  156.2438 C.3     1  UNL1        0.0950
     28 C         146.2263  141.9474  156.7987 C.ar    1  UNL1        0.2065
     29 N         145.3758  142.7599  157.7296 N.ar    1  UNL1       -0.2073
     30 C         144.1329  141.9745  158.0262 C.ar    1  UNL1        0.1750
     31 C         144.2151  140.6766  157.2788 C.ar    1  UNL1        0.2048
     32 O         145.5090  140.6598  156.5201 O.2     1  UNL1       -0.4351
@<TRIPOS>BOND
     1    27    28    1
     2    28    29   ar
     3    29    30   ar
     4    30    23    1
     5    23    24    2
     6    23    25   am
     7    25     1    1
     8     1     2   ar
     9     2     3   ar
    10     3     4   ar
    11     4     5    1
    12     4     6   ar
    13     6     8    1
    14     8     9    1
    15     8    10    1
    16    10    11    1
    17    11    12   ar
    18    12    13   ar
    19    13    21    1
    20    21    22    3
    21    13    14   ar
    22    14    15   ar
    23    15    16    1
    24    16    17    1
    25    16    18    2
    26     6     7   ar
    27    30    31   ar
    28    31    32   ar
    29    32    28   ar
    30     7     1   ar
    31    18     8    1
    32    15    11   ar
    33    25    26    1
    34    17    19    1
    35    17    20    1
@<TRIPOS>MOLECULE
*****
 32 35 0 0 0
SMALL
GASTEIGER

@<TRIPOS>ATOM
      1 C         140.5880  139.9626  160.3630 C.ar    1  UNL1        0.0505
      2 C         141.2183  138.6290  160.0903 C.ar    1  UNL1        0.0170
      3 C         141.9288  137.8964  161.1896 C.ar    1  UNL1        0.0307
      4 C         142.0090  138.4974  162.5616 C.ar    1  UNL1        0.1401
      5 F         142.7196  137.7647  163.6610 F       1  UNL1       -0.2044
      6 C         141.3788  139.8309  162.8343 C.ar    1  UNL1        0.0523
      7 C         140.6683  140.5635  161.7351 C.ar    1  UNL1        0.0167
      8 C         141.4591  140.4318  164.2064 C.3     1  UNL1        0.2179
      9 C         142.5718  141.1767  163.5303 C.3     1  UNL1        0.0602
     10 C         141.9259  141.2915  165.3437 C.3     1  UNL1        0.1808
     11 N         141.2520  141.1975  166.6805 N.ar    1  UNL1       -0.2384
     12 N         141.4908  141.9126  167.9772 N.ar    1  UNL1       -0.1584
     13 C         140.4978  141.4010  168.9783 C.ar    1  UNL1        0.1704
     14 C         139.6453  140.3697  168.3002 C.ar    1  UNL1        0.0576
     15 C         140.1115  140.2439  166.8801 C.ar    1  UNL1        0.1615
     16 C         139.6447  139.3843  165.7428 C.2     1  UNL1        0.3305
     17 N         138.5042  138.4308  165.9424 N.pl3   1  UNL1       -0.2452
     18 N         140.3186  139.4783  164.4060 N.2     1  UNL1       -0.0666
     19 H         138.0619  138.3691  166.8199 H       1  UNL1        0.2885
     20 H         138.1978  137.8666  165.1961 H       1  UNL1        0.2885
     21 C         140.3782  141.8430  170.4067 C.1     1  UNL1        0.1216
     22 N         140.2586  142.2850  171.8351 N.1     1  UNL1       -0.1892
     23 C         138.4206  140.4417  159.0130 C.2     1  UNL1        0.2705
     24 O         137.6740  139.4555  159.8615 O.2     1  UNL1       -0.2680
     25 N         139.8776  140.6953  159.2638 N.am    1  UNL1       -0.2791
     26 H         140.3675  141.3426  158.7069 H       1  UNL1        0.1552
     27 C         135.1905  141.5471  154.9849 C.3     1  UNL1        0.0950
     28 C         136.2254  141.6825  156.0623 C.ar    1  UNL1        0.2065
     29 N         136.6592  140.6027  157.0089 N.ar    1  UNL1       -0.2073
     30 C         137.7101  141.1745  157.9137 C.ar    1  UNL1        0.1750
     31 C         137.9258  142.6074  157.5264 C.ar    1  UNL1        0.2048
     32 O         137.0082  142.9214  156.3821 O.2     1  UNL1       -0.4351
@<TRIPOS>BOND
     1    27    28    1
     2    28    29   ar
     3    29    30   ar
     4    30    23    1
     5    23    24    2
     6    23    25   am
     7    25     1    1
     8     1     2   ar
     9     2     3   ar
    10     3     4   ar
    11     4     5    1
    12     4     6   ar
    13     6     8    1
    14     8     9    1
    15     8    10    1
    16    10    11    1
    17    11    12   ar
    18    12    13   ar
    19    13    21    1
    20    21    22    3
    21    13    14   ar
    22    14    15   ar
    23    15    16    1
    24    16    17    1
    25    16    18    2
    26     6     7   ar
    27    30    31   ar
    28    31    32   ar
    29    32    28   ar
    30     7     1   ar
    31    18     8    1
    32    15    11   ar
    33    25    26    1
    34    17    19    1
    35    17    20    1
@<TRIPOS>MOLECULE
*****
 32 35 0 0 0
SMALL
GASTEIGER

@<TRIPOS>ATOM
      1 C         143.6802  140.0740  160.0386 C.ar    1  UNL1        0.0505
      2 C         144.0654  141.4563  159.6019 C.ar    1  UNL1        0.0170
      3 C         144.1577  142.5631  160.6102 C.ar    1  UNL1        0.0307
      4 C         143.8647  142.2874  162.0552 C.ar    1  UNL1        0.1401
      5 F         143.9569  143.3942  163.0635 F       1  UNL1       -0.2044
      6 C         143.4795  140.9052  162.4920 C.ar    1  UNL1        0.0523
      7 C         143.3873  139.7984  161.4838 C.ar    1  UNL1        0.0167
      8 C         143.1865  140.6296  163.9371 C.3     1  UNL1        0.2179
      9 C         144.6465  140.2874  163.8975 C.3     1  UNL1        0.0602
     10 C         143.4007  140.2352  165.3685 C.3     1  UNL1        0.1808
     11 N         142.2566  140.2787  166.3376 N.ar    1  UNL1       -0.2384
     12 N         142.1657  139.9508  167.7984 N.ar    1  UNL1       -0.1584
     13 C         140.7513  140.1860  168.2391 C.ar    1  UNL1        0.1704
     14 C         139.9681  140.6593  167.0506 C.ar    1  UNL1        0.0576
     15 C         140.8985  140.7166  165.8754 C.ar    1  UNL1        0.1615
     16 C         140.6844  141.1110  164.4441 C.2     1  UNL1        0.3305
     17 N         139.3262  141.5489  163.9819 N.pl3   1  UNL1       -0.2452
     18 N         141.8284  141.0675  163.4750 N.2     1  UNL1       -0.0666
     19 H         138.5753  141.5774  164.6179 H       1  UNL1        0.2885
     20 H         139.1857  141.8077  163.0424 H       1  UNL1        0.2885
     21 C         140.2144  139.9834  169.6250 C.1     1  UNL1        0.1216
     22 N         139.6775  139.7808  171.0109 N.1     1  UNL1       -0.1892
     23 C         142.2493  138.5415  158.5043 C.2     1  UNL1        0.2705
     24 O         141.0029  139.2225  158.9865 O.2     1  UNL1       -0.2680
     25 N         143.5880  138.9672  159.0305 N.am    1  UNL1       -0.2791
     26 H         144.4061  138.5202  158.7140 H       1  UNL1        0.1552
     27 C         143.4704  134.3894  155.4794 C.3     1  UNL1        0.0950
     28 C         142.7184  135.5262  156.1057 C.ar    1  UNL1        0.2065
     29 N         143.2407  136.4520  157.1642 N.ar    1  UNL1       -0.2073
     30 C         142.1571  137.4346  157.4961 C.ar    1  UNL1        0.1750
     31 C         140.9653  137.1163  156.6429 C.ar    1  UNL1        0.2048
     32 O         141.3121  135.9368  155.7836 O.2     1  UNL1       -0.4351
@<TRIPOS>BOND
     1    27    28    1
     2    28    29   ar
     3    29    30   ar
     4    30    23    1
     5    23    24    2
     6    23    25   am
     7    25     1    1
     8     1     2   ar
     9     2     3   ar
    10     3     4   ar
    11     4     5    1
    12     4     6   ar
    13     6     8    1
    14     8     9    1
    15     8    10    1
    16    10    11    1
    17    11    12   ar
    18    12    13   ar
    19    13    21    1
    20    21    22    3
    21    13    14   ar
    22    14    15   ar
    23    15    16    1
    24    16    17    1
    25    16    18    2
    26     6     7   ar
    27    30    31   ar
    28    31    32   ar
    29    32    28   ar
    30     7     1   ar
    31    18     8    1
    32    15    11   ar
    33    25    26    1
    34    17    19    1
    35    17    20    1
