@<TRIPOS>MOLECULE
*****
 34 38 0 0 0
SMALL
GASTEIGER

@<TRIPOS>ATOM
      1 C         137.9000  139.9057  162.2593 C.3     1  UNL1        0.0759
      2 C         139.4556  140.2800  166.4653 C.3     1  UNL1        0.0464
      3 C         139.7216  141.3681  165.4676 C.3     1  UNL1        0.0234
      4 C         139.2031  141.2433  164.0657 C.3     1  UNL1        0.0725
      5 N         138.4186  140.0305  163.6613 N.3     1  UNL1       -0.2725
      6 C         138.1525  138.9424  164.6589 C.3     1  UNL1        0.0725
      7 C         138.6710  139.0672  166.0609 C.3     1  UNL1        0.0234
      8 F         144.8028  142.8658  170.3836 F       1  UNL1       -0.2041
      9 C         143.6173  142.2719  169.6823 C.ar    1  UNL1        0.1433
     10 C         143.4936  142.3846  168.1917 C.ar    1  UNL1        0.0299
     11 C         142.3081  141.7907  167.4903 C.ar    1  UNL1        0.0067
     12 C         141.2463  141.0841  168.2796 C.ar    1  UNL1        0.0540
     13 C         139.9741  140.4048  167.8673 C.ar    1  UNL1        0.1003
     14 N         139.3114  139.8722  169.1031 N.ar    1  UNL1       -0.0814
     15 O         140.1740  140.2223  170.2792 O.2     1  UNL1       -0.3536
     16 C         141.3699  140.9713  169.7702 C.ar    1  UNL1        0.1787
     17 C         142.5554  141.5652  170.4715 C.ar    1  UNL1        0.0698
     18 C         138.0036  138.5962  161.5351 C.3     1  UNL1        0.0646
     19 C         139.3507  138.0383  161.1830 C.3     1  UNL1        0.2068
     20 O         140.1771  137.3551  162.2320 O.3     1  UNL1       -0.4754
     21 C         141.4166  138.0158  162.7583 C.ar    1  UNL1        0.1385
     22 C         141.6343  138.1313  164.2380 C.ar    1  UNL1        0.0366
     23 C         142.8738  138.7920  164.7643 C.ar    1  UNL1       -0.0011
     24 C         143.8956  139.3372  163.8110 C.ar    1  UNL1       -0.0206
     25 C         143.6779  139.2216  162.3313 C.ar    1  UNL1       -0.0011
     26 C         142.4384  138.5609  161.8050 C.ar    1  UNL1        0.0366
     27 C         145.1351  139.9979  164.3373 C.3     1  UNL1        0.0437
     28 C         145.6955  141.2031  163.6421 C.3     1  UNL1        0.0768
     29 N         144.9140  142.4831  163.6129 N.3     1  UNL1       -0.2724
     30 C         144.7485  143.2896  164.8667 C.3     1  UNL1        0.0721
     31 C         143.9669  144.5697  164.8376 C.3     1  UNL1        0.0174
     32 C         143.3508  145.0431  163.5545 C.3     1  UNL1        0.0029
     33 C         143.5163  144.2365  162.3006 C.3     1  UNL1        0.0174
     34 C         144.2978  142.9566  162.3299 C.3     1  UNL1        0.0721
@<TRIPOS>BOND
     1     8     9    1
     2     9    10   ar
     3    10    11   ar
     4    11    12   ar
     5    12    13   ar
     6    13     2    1
     7     2     3    1
     8     3     4    1
     9     4     5    1
    10     5     1    1
    11     1    18    1
    12    18    19    1
    13    19    20    1
    14    20    21    1
    15    21    22   ar
    16    22    23   ar
    17    23    24   ar
    18    24    27    1
    19    27    28    1
    20    28    29    1
    21    29    30    1
    22    30    31    1
    23    31    32    1
    24    32    33    1
    25    33    34    1
    26    24    25   ar
    27    25    26   ar
    28     5     6    1
    29     6     7    1
    30    13    14   ar
    31    14    15   ar
    32    15    16   ar
    33    16    17   ar
    34    17     9   ar
    35    16    12   ar
    36     7     2    1
    37    26    21   ar
    38    34    29    1
@<TRIPOS>MOLECULE
*****
 34 38 0 0 0
SMALL
GASTEIGER

@<TRIPOS>ATOM
      1 C         143.5410  140.6781  160.6295 C.3     1  UNL1        0.0759
      2 C         142.9943  140.0754  165.0554 C.3     1  UNL1        0.0464
      3 C         141.8052  140.0438  164.1416 C.3     1  UNL1        0.0234
      4 C         141.9874  140.2447  162.6664 C.3     1  UNL1        0.0725
      5 N         143.3587  140.4772  162.1048 N.3     1  UNL1       -0.2725
      6 C         144.5479  140.5089  163.0186 C.3     1  UNL1        0.0725
      7 C         144.3656  140.3080  164.4938 C.3     1  UNL1        0.0234
      8 F         139.9909  142.8418  170.8828 F       1  UNL1       -0.2041
      9 C         140.6747  142.1517  169.7399 C.ar    1  UNL1        0.1433
     10 C         140.5948  142.7304  168.3584 C.ar    1  UNL1        0.0299
     11 C         141.2785  142.0402  167.2155 C.ar    1  UNL1        0.0067
     12 C         142.0421  140.7714  167.4541 C.ar    1  UNL1        0.0540
     13 C         142.8121  139.8745  166.5307 C.ar    1  UNL1        0.1003
     14 N         143.3679  138.7415  167.3415 N.ar    1  UNL1       -0.0814
     15 O         142.9413  138.9381  168.7661 O.2     1  UNL1       -0.3536
     16 C         142.1219  140.1927  168.8356 C.ar    1  UNL1        0.1787
     17 C         141.4382  140.8828  169.9785 C.ar    1  UNL1        0.0698
     18 C         144.2152  141.9169  160.1189 C.3     1  UNL1        0.0646
     19 C         143.3920  143.0746  159.6373 C.3     1  UNL1        0.2068
     20 O         142.9813  144.1530  160.5956 O.3     1  UNL1       -0.4754
     21 C         141.9260  143.8789  161.6258 C.ar    1  UNL1        0.1385
     22 C         142.2530  143.9994  163.0848 C.ar    1  UNL1        0.0366
     23 C         141.1977  143.7253  164.1149 C.ar    1  UNL1       -0.0011
     24 C         139.8156  143.3306  163.6861 C.ar    1  UNL1       -0.0206
     25 C         139.4886  143.2101  162.2271 C.ar    1  UNL1       -0.0011
     26 C         140.5439  143.4842  161.1969 C.ar    1  UNL1        0.0366
     27 C         138.7603  143.0565  164.7163 C.3     1  UNL1        0.0437
     28 C         137.7284  141.9963  164.4691 C.3     1  UNL1        0.0768
     29 N         138.1276  140.5505  164.4523 N.3     1  UNL1       -0.2724
     30 C         138.4227  139.8388  165.7393 C.3     1  UNL1        0.0721
     31 C         138.8220  138.3930  165.7225 C.3     1  UNL1        0.0174
     32 C         138.9261  137.6588  164.4186 C.3     1  UNL1        0.0029
     33 C         138.6310  138.3705  163.1316 C.3     1  UNL1        0.0174
     34 C         138.2317  139.8162  163.1484 C.3     1  UNL1        0.0721
@<TRIPOS>BOND
     1     8     9    1
     2     9    10   ar
     3    10    11   ar
     4    11    12   ar
     5    12    13   ar
     6    13     2    1
     7     2     3    1
     8     3     4    1
     9     4     5    1
    10     5     1    1
    11     1    18    1
    12    18    19    1
    13    19    20    1
    14    20    21    1
    15    21    22   ar
    16    22    23   ar
    17    23    24   ar
    18    24    27    1
    19    27    28    1
    20    28    29    1
    21    29    30    1
    22    30    31    1
    23    31    32    1
    24    32    33    1
    25    33    34    1
    26    24    25   ar
    27    25    26   ar
    28     5     6    1
    29     6     7    1
    30    13    14   ar
    31    14    15   ar
    32    15    16   ar
    33    16    17   ar
    34    17     9   ar
    35    16    12   ar
    36     7     2    1
    37    26    21   ar
    38    34    29    1
@<TRIPOS>MOLECULE
*****
 34 38 0 0 0
SMALL
GASTEIGER

@<TRIPOS>ATOM
      1 C         139.7234  143.7430  160.6149 C.3     1  UNL1        0.0759
      2 C         139.3573  141.5169  164.5085 C.3     1  UNL1        0.0464
      3 C         138.2590  142.4369  164.0645 C.3     1  UNL1        0.0234
      4 C         138.3811  143.1790  162.7666 C.3     1  UNL1        0.0725
      5 N         139.6014  143.0010  161.9127 N.3     1  UNL1       -0.2725
      6 C         140.6997  142.0810  162.3568 C.3     1  UNL1        0.0725
      7 C         140.5777  141.3390  163.6547 C.3     1  UNL1        0.0234
      8 F         141.4530  141.4916  171.3085 F       1  UNL1       -0.2041
      9 C         140.9351  141.3761  169.9055 C.ar    1  UNL1        0.1433
     10 C         141.3322  142.3897  168.8736 C.ar    1  UNL1        0.0299
     11 C         140.8143  142.2743  167.4706 C.ar    1  UNL1        0.0067
     12 C         139.8994  141.1451  167.0994 C.ar    1  UNL1        0.0540
     13 C         139.2353  140.7749  165.8064 C.ar    1  UNL1        0.1003
     14 N         138.4278  139.5324  166.0391 N.ar    1  UNL1       -0.0814
     15 O         138.5928  139.1347  167.4760 O.2     1  UNL1       -0.3536
     16 C         139.5023  140.1314  168.1313 C.ar    1  UNL1        0.1787
     17 C         140.0202  140.2469  169.5343 C.ar    1  UNL1        0.0698
     18 C         139.7229  142.9901  159.3175 C.3     1  UNL1        0.0646
     19 C         138.4300  142.5022  158.7341 C.3     1  UNL1        0.2068
     20 O         138.1476  141.0308  158.6621 O.3     1  UNL1       -0.4754
     21 C         138.4945  140.1430  159.8203 C.ar    1  UNL1        0.1385
     22 C         137.5838  140.0723  161.0101 C.ar    1  UNL1        0.0366
     23 C         137.9306  139.1845  162.1683 C.ar    1  UNL1       -0.0011
     24 C         139.1881  138.3674  162.1366 C.ar    1  UNL1       -0.0206
     25 C         140.0988  138.4380  160.9468 C.ar    1  UNL1       -0.0011
     26 C         139.7519  139.3258  159.7886 C.ar    1  UNL1        0.0366
     27 C         139.5350  137.4795  163.2948 C.3     1  UNL1        0.0437
     28 C         140.9503  137.0241  163.4932 C.3     1  UNL1        0.0768
     29 N         141.9837  137.9860  164.0000 N.3     1  UNL1       -0.2724
     30 C         141.9743  138.4072  165.4396 C.3     1  UNL1        0.0721
     31 C         143.0077  139.3692  165.9465 C.3     1  UNL1        0.0174
     32 C         144.0504  139.9099  165.0137 C.3     1  UNL1        0.0029
     33 C         144.0598  139.4888  163.5740 C.3     1  UNL1        0.0174
     34 C         143.0265  138.5268  163.0672 C.3     1  UNL1        0.0721
@<TRIPOS>BOND
     1     8     9    1
     2     9    10   ar
     3    10    11   ar
     4    11    12   ar
     5    12    13   ar
     6    13     2    1
     7     2     3    1
     8     3     4    1
     9     4     5    1
    10     5     1    1
    11     1    18    1
    12    18    19    1
    13    19    20    1
    14    20    21    1
    15    21    22   ar
    16    22    23   ar
    17    23    24   ar
    18    24    27    1
    19    27    28    1
    20    28    29    1
    21    29    30    1
    22    30    31    1
    23    31    32    1
    24    32    33    1
    25    33    34    1
    26    24    25   ar
    27    25    26   ar
    28     5     6    1
    29     6     7    1
    30    13    14   ar
    31    14    15   ar
    32    15    16   ar
    33    16    17   ar
    34    17     9   ar
    35    16    12   ar
    36     7     2    1
    37    26    21   ar
    38    34    29    1
@<TRIPOS>MOLECULE
*****
 34 38 0 0 0
SMALL
GASTEIGER

@<TRIPOS>ATOM
      1 C         137.8909  138.6610  161.7009 C.3     1  UNL1        0.0759
      2 C         139.1112  139.5783  165.9340 C.3     1  UNL1        0.0464
      3 C         139.3741  138.2196  165.3554 C.3     1  UNL1        0.0234
      4 C         138.9674  137.9139  163.9443 C.3     1  UNL1        0.0725
      5 N         138.2977  138.9667  163.1119 N.3     1  UNL1       -0.2725
      6 C         138.0348  140.3254  163.6906 C.3     1  UNL1        0.0725
      7 C         138.4416  140.6312  165.1016 C.3     1  UNL1        0.0234
      8 F         144.0595  142.8146  169.8930 F       1  UNL1       -0.2041
      9 C         142.9505  142.0958  169.1835 C.ar    1  UNL1        0.1433
     10 C         142.9361  142.0320  167.6850 C.ar    1  UNL1        0.0299
     11 C         141.8271  141.3132  166.9754 C.ar    1  UNL1        0.0067
     12 C         140.7325  140.6581  167.7645 C.ar    1  UNL1        0.0540
     13 C         139.5180  139.8841  167.3451 C.ar    1  UNL1        0.1003
     14 N         138.7818  139.4694  168.5845 N.ar    1  UNL1       -0.0814
     15 O         139.5412  139.9872  169.7698 O.2     1  UNL1       -0.3536
     16 C         140.7468  140.7219  169.2630 C.ar    1  UNL1        0.1787
     17 C         141.8558  141.4407  169.9725 C.ar    1  UNL1        0.0698
     18 C         138.6459  139.2663  160.5548 C.3     1  UNL1        0.0646
     19 C         139.9276  138.6424  160.0879 C.3     1  UNL1        0.2068
     20 O         141.1701  138.7702  160.9183 O.3     1  UNL1       -0.4754
     21 C         141.6130  140.1190  161.4027 C.ar    1  UNL1        0.1385
     22 C         141.9263  141.2045  160.4160 C.ar    1  UNL1        0.0366
     23 C         142.3692  142.5533  160.9004 C.ar    1  UNL1       -0.0011
     24 C         142.4987  142.8166  162.3714 C.ar    1  UNL1       -0.0206
     25 C         142.1854  141.7311  163.3581 C.ar    1  UNL1       -0.0011
     26 C         141.7425  140.3823  162.8737 C.ar    1  UNL1        0.0366
     27 C         142.9415  144.1654  162.8558 C.3     1  UNL1        0.0437
     28 C         141.9271  145.2396  163.1145 C.3     1  UNL1        0.0768
     29 N         140.5215  144.8701  163.4856 N.3     1  UNL1       -0.2724
     30 C         139.4621  144.7920  162.4265 C.3     1  UNL1        0.0721
     31 C         138.0564  144.4225  162.7975 C.3     1  UNL1        0.0174
     32 C         137.7101  144.1311  164.2276 C.3     1  UNL1        0.0029
     33 C         138.7696  144.2092  165.2867 C.3     1  UNL1        0.0174
     34 C         140.1752  144.5787  164.9156 C.3     1  UNL1        0.0721
@<TRIPOS>BOND
     1     8     9    1
     2     9    10   ar
     3    10    11   ar
     4    11    12   ar
     5    12    13   ar
     6    13     2    1
     7     2     3    1
     8     3     4    1
     9     4     5    1
    10     5     1    1
    11     1    18    1
    12    18    19    1
    13    19    20    1
    14    20    21    1
    15    21    22   ar
    16    22    23   ar
    17    23    24   ar
    18    24    27    1
    19    27    28    1
    20    28    29    1
    21    29    30    1
    22    30    31    1
    23    31    32    1
    24    32    33    1
    25    33    34    1
    26    24    25   ar
    27    25    26   ar
    28     5     6    1
    29     6     7    1
    30    13    14   ar
    31    14    15   ar
    32    15    16   ar
    33    16    17   ar
    34    17     9   ar
    35    16    12   ar
    36     7     2    1
    37    26    21   ar
    38    34    29    1
@<TRIPOS>MOLECULE
*****
 34 38 0 0 0
SMALL
GASTEIGER

@<TRIPOS>ATOM
      1 C         143.6834  142.9268  160.4162 C.3     1  UNL1        0.0759
      2 C         143.3191  140.8383  164.3856 C.3     1  UNL1        0.0464
      3 C         142.0853  141.2154  163.6205 C.3     1  UNL1        0.0234
      4 C         142.2067  141.9115  162.2974 C.3     1  UNL1        0.0725
      5 N         143.5619  142.2306  161.7393 N.3     1  UNL1       -0.2725
      6 C         144.7958  141.8535  162.5044 C.3     1  UNL1        0.0725
      7 C         144.6744  141.1573  163.8275 C.3     1  UNL1        0.0234
      8 F         141.0357  141.6212  171.0792 F       1  UNL1       -0.2041
      9 C         141.5583  141.3212  169.7056 C.ar    1  UNL1        0.1433
     10 C         141.4742  142.3607  168.6275 C.ar    1  UNL1        0.0299
     11 C         141.9968  142.0607  167.2539 C.ar    1  UNL1        0.0067
     12 C         142.6036  140.7212  166.9583 C.ar    1  UNL1        0.0540
     13 C         143.1977  140.1421  165.7087 C.ar    1  UNL1        0.1003
     14 N         143.6491  138.7447  166.0144 N.ar    1  UNL1       -0.0814
     15 O         143.3339  138.4600  167.4530 O.2     1  UNL1       -0.3536
     16 C         142.6877  139.6817  168.0364 C.ar    1  UNL1        0.1787
     17 C         142.1651  139.9817  169.4100 C.ar    1  UNL1        0.0698
     18 C         144.5833  142.3677  159.3544 C.3     1  UNL1        0.0646
     19 C         144.0496  141.3736  158.3660 C.3     1  UNL1        0.2068
     20 O         144.2011  139.9037  158.6243 O.3     1  UNL1       -0.4754
     21 C         143.4379  139.2560  159.7415 C.ar    1  UNL1        0.1385
     22 C         141.9415  139.1731  159.6781 C.ar    1  UNL1        0.0366
     23 C         141.1784  138.5253  160.7953 C.ar    1  UNL1       -0.0011
     24 C         141.9116  137.9606  161.9757 C.ar    1  UNL1       -0.0206
     25 C         143.4080  138.0435  162.0390 C.ar    1  UNL1       -0.0011
     26 C         144.1711  138.6912  160.9219 C.ar    1  UNL1        0.0366
     27 C         141.1484  137.3128  163.0928 C.3     1  UNL1        0.0437
     28 C         139.6781  137.5683  163.2436 C.3     1  UNL1        0.0768
     29 N         139.1974  138.8729  163.8066 N.3     1  UNL1       -0.2724
     30 C         138.4162  139.8196  162.9442 C.3     1  UNL1        0.0721
     31 C         137.9354  141.1243  163.5072 C.3     1  UNL1        0.0174
     32 C         138.2360  141.4822  164.9325 C.3     1  UNL1        0.0029
     33 C         139.0172  140.5356  165.7948 C.3     1  UNL1        0.0174
     34 C         139.4979  139.2310  165.2318 C.3     1  UNL1        0.0721
@<TRIPOS>BOND
     1     8     9    1
     2     9    10   ar
     3    10    11   ar
     4    11    12   ar
     5    12    13   ar
     6    13     2    1
     7     2     3    1
     8     3     4    1
     9     4     5    1
    10     5     1    1
    11     1    18    1
    12    18    19    1
    13    19    20    1
    14    20    21    1
    15    21    22   ar
    16    22    23   ar
    17    23    24   ar
    18    24    27    1
    19    27    28    1
    20    28    29    1
    21    29    30    1
    22    30    31    1
    23    31    32    1
    24    32    33    1
    25    33    34    1
    26    24    25   ar
    27    25    26   ar
    28     5     6    1
    29     6     7    1
    30    13    14   ar
    31    14    15   ar
    32    15    16   ar
    33    16    17   ar
    34    17     9   ar
    35    16    12   ar
    36     7     2    1
    37    26    21   ar
    38    34    29    1
@<TRIPOS>MOLECULE
*****
 34 38 0 0 0
SMALL
GASTEIGER

@<TRIPOS>ATOM
      1 C         141.0661  145.6300  162.4763 C.3     1  UNL1        0.0759
      2 C         140.5378  142.4695  165.6358 C.3     1  UNL1        0.0464
      3 C         139.5363  143.5790  165.5100 C.3     1  UNL1        0.0234
      4 C         139.7124  144.6325  164.4568 C.3     1  UNL1        0.0725
      5 N         140.8900  144.5766  163.5295 N.3     1  UNL1       -0.2725
      6 C         141.8915  143.4670  163.6553 C.3     1  UNL1        0.0725
      7 C         141.7154  142.4135  164.7084 C.3     1  UNL1        0.0234
      8 F         143.4597  139.6883  171.4974 F       1  UNL1       -0.2041
      9 C         142.7367  140.1765  170.2773 C.ar    1  UNL1        0.1433
     10 C         143.2985  141.3145  169.4777 C.ar    1  UNL1        0.0299
     11 C         142.5755  141.8028  168.2576 C.ar    1  UNL1        0.0067
     12 C         141.2906  141.1530  167.8369 C.ar    1  UNL1        0.0540
     13 C         140.3617  141.4160  166.6889 C.ar    1  UNL1        0.1003
     14 N         139.2257  140.4405  166.7790 N.ar    1  UNL1       -0.0814
     15 O         139.4526  139.5747  167.9826 O.2     1  UNL1       -0.3536
     16 C         140.7288  140.0151  168.6365 C.ar    1  UNL1        0.1787
     17 C         141.4518  139.5268  169.8567 C.ar    1  UNL1        0.0698
     18 C         139.9610  145.9074  161.5007 C.3     1  UNL1        0.0646
     19 C         140.0073  145.3105  160.1254 C.3     1  UNL1        0.2068
     20 O         139.1860  144.0965  159.8067 O.3     1  UNL1       -0.4754
     21 C         139.2524  142.8912  160.6971 C.ar    1  UNL1        0.1385
     22 C         138.1520  142.6240  161.6808 C.ar    1  UNL1        0.0366
     23 C         138.2184  141.4187  162.5712 C.ar    1  UNL1       -0.0011
     24 C         139.3851  140.4806  162.4779 C.ar    1  UNL1       -0.0206
     25 C         140.4856  140.7478  161.4941 C.ar    1  UNL1       -0.0011
     26 C         140.4192  141.9531  160.6037 C.ar    1  UNL1        0.0366
     27 C         139.4515  139.2753  163.3683 C.3     1  UNL1        0.0437
     28 C         140.5875  138.3051  163.2336 C.3     1  UNL1        0.0768
     29 N         141.8787  138.5574  163.9542 N.3     1  UNL1       -0.2724
     30 C         143.0770  139.0476  163.1966 C.3     1  UNL1        0.0721
     31 C         144.3682  139.2999  163.9171 C.3     1  UNL1        0.0174
     32 C         144.4612  139.0620  165.3952 C.3     1  UNL1        0.0029
     33 C         143.2629  138.5718  166.1527 C.3     1  UNL1        0.0174
     34 C         141.9717  138.3195  165.4322 C.3     1  UNL1        0.0721
@<TRIPOS>BOND
     1     8     9    1
     2     9    10   ar
     3    10    11   ar
     4    11    12   ar
     5    12    13   ar
     6    13     2    1
     7     2     3    1
     8     3     4    1
     9     4     5    1
    10     5     1    1
    11     1    18    1
    12    18    19    1
    13    19    20    1
    14    20    21    1
    15    21    22   ar
    16    22    23   ar
    17    23    24   ar
    18    24    27    1
    19    27    28    1
    20    28    29    1
    21    29    30    1
    22    30    31    1
    23    31    32    1
    24    32    33    1
    25    33    34    1
    26    24    25   ar
    27    25    26   ar
    28     5     6    1
    29     6     7    1
    30    13    14   ar
    31    14    15   ar
    32    15    16   ar
    33    16    17   ar
    34    17     9   ar
    35    16    12   ar
    36     7     2    1
    37    26    21   ar
    38    34    29    1
@<TRIPOS>MOLECULE
*****
 34 38 0 0 0
SMALL
GASTEIGER

@<TRIPOS>ATOM
      1 C         139.6871  143.1217  160.5467 C.3     1  UNL1        0.0759
      2 C         139.2852  141.2255  164.6079 C.3     1  UNL1        0.0464
      3 C         140.1702  140.5985  163.5717 C.3     1  UNL1        0.0234
      4 C         140.3041  141.2306  162.2180 C.3     1  UNL1        0.0725
      5 N         139.5532  142.4897  161.9005 N.3     1  UNL1       -0.2725
      6 C         138.6683  143.1166  162.9367 C.3     1  UNL1        0.0725
      7 C         138.5343  142.4846  164.2904 C.3     1  UNL1        0.0234
      8 F         141.3192  141.7645  171.4053 F       1  UNL1       -0.2041
      9 C         140.8140  141.5329  170.0121 C.ar    1  UNL1        0.1433
     10 C         141.2206  142.4579  168.9035 C.ar    1  UNL1        0.0299
     11 C         140.7155  142.2263  167.5102 C.ar    1  UNL1        0.0067
     12 C         139.8037  141.0698  167.2255 C.ar    1  UNL1        0.0540
     13 C         139.1513  140.5934  165.9616 C.ar    1  UNL1        0.1003
     14 N         138.3415  139.3740  166.2891 N.ar    1  UNL1       -0.0814
     15 O         138.4933  139.0968  167.7554 O.2     1  UNL1       -0.3536
     16 C         139.3971  140.1449  168.3341 C.ar    1  UNL1        0.1787
     17 C         139.9023  140.3764  169.7274 C.ar    1  UNL1        0.0698
     18 C         139.7070  144.6159  160.4153 C.3     1  UNL1        0.0646
     19 C         140.9184  145.3903  160.8426 C.3     1  UNL1        0.2068
     20 O         141.3350  145.3961  162.2836 O.3     1  UNL1       -0.4754
     21 C         142.2133  144.3023  162.8148 C.ar    1  UNL1        0.1385
     22 C         142.0899  143.8698  164.2458 C.ar    1  UNL1        0.0366
     23 C         142.9682  142.7760  164.7770 C.ar    1  UNL1       -0.0011
     24 C         143.9698  142.1148  163.8773 C.ar    1  UNL1       -0.0206
     25 C         144.0932  142.5474  162.4463 C.ar    1  UNL1       -0.0011
     26 C         143.2149  143.6412  161.9151 C.ar    1  UNL1        0.0366
     27 C         144.8481  141.0210  164.4085 C.3     1  UNL1        0.0437
     28 C         144.8676  139.6809  163.7348 C.3     1  UNL1        0.0768
     29 N         143.6254  138.8409  163.7001 N.3     1  UNL1       -0.2724
     30 C         143.0920  138.3447  162.3888 C.3     1  UNL1        0.0721
     31 C         141.8497  137.5046  162.3540 C.3     1  UNL1        0.0174
     32 C         141.1409  137.1607  163.6304 C.3     1  UNL1        0.0029
     33 C         141.6743  137.6569  164.9416 C.3     1  UNL1        0.0174
     34 C         142.9165  138.4970  164.9764 C.3     1  UNL1        0.0721
@<TRIPOS>BOND
     1     8     9    1
     2     9    10   ar
     3    10    11   ar
     4    11    12   ar
     5    12    13   ar
     6    13     2    1
     7     2     3    1
     8     3     4    1
     9     4     5    1
    10     5     1    1
    11     1    18    1
    12    18    19    1
    13    19    20    1
    14    20    21    1
    15    21    22   ar
    16    22    23   ar
    17    23    24   ar
    18    24    27    1
    19    27    28    1
    20    28    29    1
    21    29    30    1
    22    30    31    1
    23    31    32    1
    24    32    33    1
    25    33    34    1
    26    24    25   ar
    27    25    26   ar
    28     5     6    1
    29     6     7    1
    30    13    14   ar
    31    14    15   ar
    32    15    16   ar
    33    16    17   ar
    34    17     9   ar
    35    16    12   ar
    36     7     2    1
    37    26    21   ar
    38    34    29    1
@<TRIPOS>MOLECULE
*****
 34 38 0 0 0
SMALL
GASTEIGER

@<TRIPOS>ATOM
      1 C         141.7959  144.3615  160.6859 C.3     1  UNL1        0.0759
      2 C         142.2377  142.2051  164.6108 C.3     1  UNL1        0.0464
      3 C         142.6946  143.6279  164.4811 C.3     1  UNL1        0.0234
      4 C         142.5473  144.3467  163.1729 C.3     1  UNL1        0.0725
      5 N         141.9432  143.6427  161.9942 N.3     1  UNL1       -0.2725
      6 C         141.4863  142.2199  162.1238 C.3     1  UNL1        0.0725
      7 C         141.6336  141.5011  163.4321 C.3     1  UNL1        0.0234
      8 F         140.2904  142.3128  171.4539 F       1  UNL1       -0.2041
      9 C         140.7772  142.1695  170.0423 C.ar    1  UNL1        0.1433
     10 C         140.3618  143.1659  169.0009 C.ar    1  UNL1        0.0299
     11 C         140.8485  143.0226  167.5894 C.ar    1  UNL1        0.0067
     12 C         141.7507  141.8829  167.2192 C.ar    1  UNL1        0.0540
     13 C         142.3850  141.4863  165.9191 C.ar    1  UNL1        0.1003
     14 N         143.1925  140.2448  166.1570 N.ar    1  UNL1       -0.0814
     15 O         143.0572  139.8740  167.6041 O.2     1  UNL1       -0.3536
     16 C         142.1661  140.8865  168.2606 C.ar    1  UNL1        0.1787
     17 C         141.6794  141.0298  169.6722 C.ar    1  UNL1        0.0698
     18 C         140.5678  145.1786  160.4131 C.3     1  UNL1        0.0646
     19 C         139.9973  146.0565  161.4872 C.3     1  UNL1        0.2068
     20 O         138.6503  145.7484  162.0710 O.3     1  UNL1       -0.4754
     21 C         138.4443  144.4878  162.8574 C.ar    1  UNL1        0.1385
     22 C         137.8998  143.2636  162.1829 C.ar    1  UNL1        0.0366
     23 C         137.6938  142.0030  162.9692 C.ar    1  UNL1       -0.0011
     24 C         138.0323  141.9666  164.4301 C.ar    1  UNL1       -0.0206
     25 C         138.5768  143.1908  165.1046 C.ar    1  UNL1       -0.0011
     26 C         138.7828  144.4514  164.3182 C.ar    1  UNL1        0.0366
     27 C         137.8263  140.7060  165.2165 C.3     1  UNL1        0.0437
     28 C         139.0088  139.8940  165.6553 C.3     1  UNL1        0.0768
     29 N         139.6766  138.9596  164.6905 N.3     1  UNL1       -0.2724
     30 C         139.1217  138.7868  163.3077 C.3     1  UNL1        0.0721
     31 C         139.7895  137.8524  162.3428 C.3     1  UNL1        0.0174
     32 C         141.0123  137.0908  162.7608 C.3     1  UNL1        0.0029
     33 C         141.5673  137.2637  164.1436 C.3     1  UNL1        0.0174
     34 C         140.8994  138.1981  165.1084 C.3     1  UNL1        0.0721
@<TRIPOS>BOND
     1     8     9    1
     2     9    10   ar
     3    10    11   ar
     4    11    12   ar
     5    12    13   ar
     6    13     2    1
     7     2     3    1
     8     3     4    1
     9     4     5    1
    10     5     1    1
    11     1    18    1
    12    18    19    1
    13    19    20    1
    14    20    21    1
    15    21    22   ar
    16    22    23   ar
    17    23    24   ar
    18    24    27    1
    19    27    28    1
    20    28    29    1
    21    29    30    1
    22    30    31    1
    23    31    32    1
    24    32    33    1
    25    33    34    1
    26    24    25   ar
    27    25    26   ar
    28     5     6    1
    29     6     7    1
    30    13    14   ar
    31    14    15   ar
    32    15    16   ar
    33    16    17   ar
    34    17     9   ar
    35    16    12   ar
    36     7     2    1
    37    26    21   ar
    38    34    29    1
@<TRIPOS>MOLECULE
*****
 34 38 0 0 0
SMALL
GASTEIGER

@<TRIPOS>ATOM
      1 C         139.7374  138.3906  160.4834 C.3     1  UNL1        0.0759
      2 C         139.1570  139.1235  164.8852 C.3     1  UNL1        0.0464
      3 C         138.7041  140.1485  163.8881 C.3     1  UNL1        0.0234
      4 C         138.8976  139.9042  162.4208 C.3     1  UNL1        0.0725
      5 N         139.5439  138.6349  161.9506 N.3     1  UNL1       -0.2725
      6 C         139.9968  137.6099  162.9478 C.3     1  UNL1        0.0725
      7 C         139.8034  137.8542  164.4150 C.3     1  UNL1        0.0234
      8 F         141.2375  143.1991  170.3344 F       1  UNL1       -0.2041
      9 C         140.7115  142.2709  169.2800 C.ar    1  UNL1        0.1433
     10 C         141.2048  142.3833  167.8679 C.ar    1  UNL1        0.0299
     11 C         140.6788  141.4550  166.8136 C.ar    1  UNL1        0.0067
     12 C         139.6596  140.4143  167.1713 C.ar    1  UNL1        0.0540
     13 C         138.9636  139.3678  166.3525 C.ar    1  UNL1        0.1003
     14 N         138.0401  138.6086  167.2585 N.ar    1  UNL1       -0.0814
     15 O         138.1654  139.1858  168.6373 O.2     1  UNL1       -0.3536
     16 C         139.1663  140.3018  168.5834 C.ar    1  UNL1        0.1787
     17 C         139.6923  141.2301  169.6377 C.ar    1  UNL1        0.0698
     18 C         140.7218  139.2160  159.7090 C.3     1  UNL1        0.0646
     19 C         142.1598  138.7958  159.6362 C.3     1  UNL1        0.2068
     20 O         143.0409  138.9248  160.8433 O.3     1  UNL1       -0.4754
     21 C         143.0200  140.1855  161.6558 C.ar    1  UNL1        0.1385
     22 C         143.3351  141.5009  161.0074 C.ar    1  UNL1        0.0366
     23 C         143.3142  142.7616  161.8199 C.ar    1  UNL1       -0.0011
     24 C         142.9781  142.7069  163.2807 C.ar    1  UNL1       -0.0206
     25 C         142.6630  141.3914  163.9291 C.ar    1  UNL1       -0.0011
     26 C         142.6839  140.1307  163.1166 C.ar    1  UNL1        0.0366
     27 C         142.9572  143.9676  164.0933 C.3     1  UNL1        0.0437
     28 C         141.8821  144.9886  163.8659 C.3     1  UNL1        0.0768
     29 N         140.4511  144.5563  163.7426 N.3     1  UNL1       -0.2724
     30 C         139.9096  144.1262  162.4115 C.3     1  UNL1        0.0721
     31 C         138.4785  143.6938  162.2881 C.3     1  UNL1        0.0174
     32 C         137.5890  143.6915  163.4958 C.3     1  UNL1        0.0029
     33 C         138.1305  144.1216  164.8269 C.3     1  UNL1        0.0174
     34 C         139.5615  144.5539  164.9503 C.3     1  UNL1        0.0721
@<TRIPOS>BOND
     1     8     9    1
     2     9    10   ar
     3    10    11   ar
     4    11    12   ar
     5    12    13   ar
     6    13     2    1
     7     2     3    1
     8     3     4    1
     9     4     5    1
    10     5     1    1
    11     1    18    1
    12    18    19    1
    13    19    20    1
    14    20    21    1
    15    21    22   ar
    16    22    23   ar
    17    23    24   ar
    18    24    27    1
    19    27    28    1
    20    28    29    1
    21    29    30    1
    22    30    31    1
    23    31    32    1
    24    32    33    1
    25    33    34    1
    26    24    25   ar
    27    25    26   ar
    28     5     6    1
    29     6     7    1
    30    13    14   ar
    31    14    15   ar
    32    15    16   ar
    33    16    17   ar
    34    17     9   ar
    35    16    12   ar
    36     7     2    1
    37    26    21   ar
    38    34    29    1
