@<TRIPOS>MOLECULE
*****
 38 43 0 0 0
SMALL
GASTEIGER

@<TRIPOS>ATOM
      1 C         139.4060  140.3091  163.3720 C.3     1  UNL1        0.0723
      2 C         139.3206  140.2861  163.5017 C.3     1  UNL1        0.0893
      3 C         139.8262  138.8738  163.4880 C.3     1  UNL1        0.0386
      4 C         139.3939  137.9121  164.5549 C.3     1  UNL1        0.0594
      5 C         138.7252  137.3297  165.7647 C.3     1  UNL1        0.0174
      6 C         137.8918  138.4051  166.3964 C.3     1  UNL1        0.0174
      7 C         138.0454  139.6521  165.5770 C.3     1  UNL1        0.0594
      8 C         138.3827  140.7364  164.5822 C.3     1  UNL1        0.0386
      9 N         138.9738  139.3474  164.4388 N.3     1  UNL1       -0.2751
     10 C         140.0193  139.4181  160.7715 C.3     1  UNL1        0.0718
     11 C         140.1248  140.8926  161.0257 C.ar    1  UNL1        0.1207
     12 N         140.4909  142.1589  160.3098 N.ar    1  UNL1       -0.2309
     13 C         140.3452  143.2966  161.2764 C.ar    1  UNL1        0.0983
     14 C         140.5690  144.7726  161.1304 C.ar    1  UNL1        0.0206
     15 C         140.3366  145.6855  162.2976 C.ar    1  UNL1        0.0016
     16 C         139.8804  145.1224  163.6110 C.ar    1  UNL1        0.0016
     17 C         139.6567  143.6464  163.7570 C.ar    1  UNL1        0.0188
     18 C         139.8891  142.7335  162.5897 C.ar    1  UNL1        0.0785
     19 N         139.7529  141.2478  162.4348 N.ar    1  UNL1       -0.3167
     20 C         140.7219  141.0195  163.4910 C.3     1  UNL1        0.0215
     21 C         141.6643  140.6710  164.6046 C.3     1  UNL1        0.0235
     22 C         140.5805  141.3542  165.3848 C.3     1  UNL1        0.0256
     23 C         140.7019  141.4936  166.8733 C.3     1  UNL1        0.0937
     24 N         141.9071  140.9500  167.5817 N.am    1  UNL1       -0.2795
     25 C         142.0285  141.0894  169.0703 C.2     1  UNL1        0.2247
     26 O         143.2338  140.5458  169.7787 O.2     1  UNL1       -0.2749
     27 C         142.9909  140.2668  166.8016 C.3     1  UNL1        0.0937
     28 C         142.8696  140.1274  165.3131 C.3     1  UNL1        0.0256
     29 C         142.4209  140.1089  163.4376 C.ar    1  UNL1       -0.0226
     30 C         143.0517  141.0321  162.4378 C.ar    1  UNL1       -0.0043
     31 C         143.8083  140.4699  161.2709 C.ar    1  UNL1       -0.0003
     32 C         143.9339  138.9845  161.1039 C.ar    1  UNL1       -0.0000
     33 C         143.3031  138.0613  162.1038 C.ar    1  UNL1       -0.0003
     34 C         142.5465  138.6236  163.2707 C.ar    1  UNL1       -0.0043
     35 C         140.9447  141.7726  169.8504 C.3     1  UNL1        0.0691
     36 C         140.2220  140.4657  169.9906 C.3     1  UNL1        0.0091
     37 C         141.6674  143.0795  169.7102 C.3     1  UNL1        0.0091
     38 C         139.8607  142.4556  170.6305 C.3     1  UNL1        0.0091
@<TRIPOS>BOND
     1    10    11    1
     2    11    12   ar
     3    12    13   ar
     4    13    14   ar
     5    14    15   ar
     6    15    16   ar
     7    16    17   ar
     8    17    18   ar
     9    18    19   ar
    10     2    19    1
    11     2     3    1
    12     4     3    1
    13     4     5    1
    14     5     6    1
    15     7     6    1
    16     7     8    1
    17     7     9    1
    18     9     1    1
    19     1    20    1
    20    20    21    1
    21    21    29    1
    22    29    30   ar
    23    30    31   ar
    24    31    32   ar
    25    32    33   ar
    26    33    34   ar
    27    21    22    1
    28    22    23    1
    29    23    24    1
    30    24    25   am
    31    25    26    2
    32    25    35    1
    33    35    36    1
    34    35    37    1
    35    35    38    1
    36    24    27    1
    37    27    28    1
    38    19    11   ar
    39     8     2    1
    40    28    21    1
    41    18    13   ar
    42     9     4    1
    43    34    29   ar
@<TRIPOS>MOLECULE
*****
 38 43 0 0 0
SMALL
GASTEIGER

@<TRIPOS>ATOM
      1 C         140.5357  142.9882  163.1829 C.3     1  UNL1        0.0723
      2 C         140.3808  142.9901  163.2079 C.3     1  UNL1        0.0893
      3 C         140.6452  144.0117  164.2740 C.3     1  UNL1        0.0386
      4 C         139.5054  144.5846  165.0630 C.3     1  UNL1        0.0594
      5 C         138.1236  144.8672  165.5738 C.3     1  UNL1        0.0174
      6 C         137.1602  144.0184  164.7983 C.3     1  UNL1        0.0174
      7 C         137.9465  143.2112  163.8083 C.3     1  UNL1        0.0594
      8 C         138.9766  142.5415  162.9309 C.3     1  UNL1        0.0386
      9 N         139.3960  143.5611  163.9718 N.3     1  UNL1       -0.2751
     10 C         140.0590  141.9904  160.4524 C.3     1  UNL1        0.0718
     11 C         141.4448  141.8882  161.0173 C.ar    1  UNL1        0.1207
     12 N         142.8138  141.4168  160.6251 N.ar    1  UNL1       -0.2309
     13 C         143.7356  141.6544  161.7844 C.ar    1  UNL1        0.0983
     14 C         145.1995  141.3876  161.9737 C.ar    1  UNL1        0.0206
     15 C         145.8641  141.7392  163.2716 C.ar    1  UNL1        0.0016
     16 C         145.0649  142.3574  164.3802 C.ar    1  UNL1        0.0016
     17 C         143.6010  142.6242  164.1909 C.ar    1  UNL1        0.0188
     18 C         142.9364  142.2727  162.8930 C.ar    1  UNL1        0.0785
     19 N         141.5206  142.4172  162.4189 N.ar    1  UNL1       -0.3167
     20 C         140.9414  141.5578  163.3816 C.3     1  UNL1        0.0215
     21 C         140.4541  140.7997  164.5806 C.3     1  UNL1        0.0235
     22 C         141.2049  141.9065  165.2598 C.3     1  UNL1        0.0256
     23 C         141.2663  141.9621  166.7575 C.3     1  UNL1        0.0937
     24 N         140.5770  140.9110  167.5760 N.am    1  UNL1       -0.2795
     25 C         140.6384  140.9666  169.0737 C.2     1  UNL1        0.2247
     26 O         139.9491  139.9155  169.8922 O.2     1  UNL1       -0.2749
     27 C         139.8262  139.8042  166.8968 C.3     1  UNL1        0.0937
     28 C         139.7647  139.7485  165.3991 C.3     1  UNL1        0.0256
     29 C         139.8725  139.9561  163.4849 C.ar    1  UNL1       -0.0226
     30 C         140.7765  139.1587  162.5922 C.ar    1  UNL1       -0.0043
     31 C         140.1949  138.3152  161.4966 C.ar    1  UNL1       -0.0003
     32 C         138.7094  138.2692  161.2938 C.ar    1  UNL1       -0.0000
     33 C         137.8054  139.0666  162.1866 C.ar    1  UNL1       -0.0003
     34 C         138.3871  139.9101  163.2821 C.ar    1  UNL1       -0.0043
     35 C         141.3892  142.0735  169.7529 C.3     1  UNL1        0.0691
     36 C         142.6232  141.2210  169.7778 C.3     1  UNL1        0.0091
     37 C         140.1552  142.9258  169.7280 C.3     1  UNL1        0.0091
     38 C         142.1401  143.1802  170.4320 C.3     1  UNL1        0.0091
@<TRIPOS>BOND
     1    10    11    1
     2    11    12   ar
     3    12    13   ar
     4    13    14   ar
     5    14    15   ar
     6    15    16   ar
     7    16    17   ar
     8    17    18   ar
     9    18    19   ar
    10     2    19    1
    11     2     3    1
    12     4     3    1
    13     4     5    1
    14     5     6    1
    15     7     6    1
    16     7     8    1
    17     7     9    1
    18     9     1    1
    19     1    20    1
    20    20    21    1
    21    21    29    1
    22    29    30   ar
    23    30    31   ar
    24    31    32   ar
    25    32    33   ar
    26    33    34   ar
    27    21    22    1
    28    22    23    1
    29    23    24    1
    30    24    25   am
    31    25    26    2
    32    25    35    1
    33    35    36    1
    34    35    37    1
    35    35    38    1
    36    24    27    1
    37    27    28    1
    38    19    11   ar
    39     8     2    1
    40    28    21    1
    41    18    13   ar
    42     9     4    1
    43    34    29   ar
@<TRIPOS>MOLECULE
*****
 38 43 0 0 0
SMALL
GASTEIGER

@<TRIPOS>ATOM
      1 C         141.8828  140.4879  163.5229 C.3     1  UNL1        0.0723
      2 C         141.9859  140.4763  163.6407 C.3     1  UNL1        0.0893
      3 C         141.5944  139.0313  163.7350 C.3     1  UNL1        0.0386
      4 C         142.2347  138.1463  164.7630 C.3     1  UNL1        0.0594
      5 C         143.0977  137.6623  165.8904 C.3     1  UNL1        0.0174
      6 C         143.9194  138.8199  166.3750 C.3     1  UNL1        0.0174
      7 C         143.5644  140.0192  165.5471 C.3     1  UNL1        0.0594
      8 C         143.0176  141.0362  164.5744 C.3     1  UNL1        0.0386
      9 N         142.5231  139.6030  164.5508 N.3     1  UNL1       -0.2751
     10 C         141.3980  139.5578  160.9009 C.3     1  UNL1        0.0718
     11 C         141.0128  140.9760  161.2017 C.ar    1  UNL1        0.1207
     12 N         140.3871  142.1635  160.5323 N.ar    1  UNL1       -0.2309
     13 C         140.3330  143.2827  161.5295 C.ar    1  UNL1        0.0983
     14 C         139.8210  144.6893  161.4328 C.ar    1  UNL1        0.0206
     15 C         139.9013  145.6000  162.6219 C.ar    1  UNL1        0.0016
     16 C         140.4936  145.1042  163.9077 C.ar    1  UNL1        0.0016
     17 C         141.0057  143.6976  164.0044 C.ar    1  UNL1        0.0188
     18 C         140.9254  142.7869  162.8153 C.ar    1  UNL1        0.0785
     19 N         141.3455  141.3613  162.6127 N.ar    1  UNL1       -0.3167
     20 C         140.4999  141.0228  163.7503 C.3     1  UNL1        0.0215
     21 C         139.6437  140.4491  164.8400 C.3     1  UNL1        0.0235
     22 C         140.6776  141.1554  165.6659 C.3     1  UNL1        0.0256
     23 C         140.5994  141.1118  167.1632 C.3     1  UNL1        0.0937
     24 N         139.4873  140.3620  167.8347 N.am    1  UNL1       -0.2795
     25 C         139.4091  140.3184  169.3320 C.2     1  UNL1        0.2247
     26 O         138.2970  139.5685  170.0034 O.2     1  UNL1       -0.2749
     27 C         138.4534  139.6556  167.0088 C.3     1  UNL1        0.0937
     28 C         138.5315  139.6992  165.5115 C.3     1  UNL1        0.0256
     29 C         138.9071  139.9420  163.6356 C.ar    1  UNL1       -0.0226
     30 C         138.1186  140.8920  162.7837 C.ar    1  UNL1       -0.0043
     31 C         137.3820  140.3849  161.5794 C.ar    1  UNL1       -0.0003
     32 C         137.4339  138.9277  161.2271 C.ar    1  UNL1       -0.0000
     33 C         138.2224  137.9777  162.0791 C.ar    1  UNL1       -0.0003
     34 C         138.9590  138.4849  163.2834 C.ar    1  UNL1       -0.0043
     35 C         140.4431  141.0248  170.1578 C.3     1  UNL1        0.0691
     36 C         141.3284  139.8162  170.0828 C.3     1  UNL1        0.0091
     37 C         139.5577  142.2332  170.2327 C.3     1  UNL1        0.0091
     38 C         141.4771  141.7310  170.9836 C.3     1  UNL1        0.0091
@<TRIPOS>BOND
     1    10    11    1
     2    11    12   ar
     3    12    13   ar
     4    13    14   ar
     5    14    15   ar
     6    15    16   ar
     7    16    17   ar
     8    17    18   ar
     9    18    19   ar
    10     2    19    1
    11     2     3    1
    12     4     3    1
    13     4     5    1
    14     5     6    1
    15     7     6    1
    16     7     8    1
    17     7     9    1
    18     9     1    1
    19     1    20    1
    20    20    21    1
    21    21    29    1
    22    29    30   ar
    23    30    31   ar
    24    31    32   ar
    25    32    33   ar
    26    33    34   ar
    27    21    22    1
    28    22    23    1
    29    23    24    1
    30    24    25   am
    31    25    26    2
    32    25    35    1
    33    35    36    1
    34    35    37    1
    35    35    38    1
    36    24    27    1
    37    27    28    1
    38    19    11   ar
    39     8     2    1
    40    28    21    1
    41    18    13   ar
    42     9     4    1
    43    34    29   ar
@<TRIPOS>MOLECULE
*****
 38 43 0 0 0
SMALL
GASTEIGER

@<TRIPOS>ATOM
      1 C         140.4415  140.4295  163.6322 C.3     1  UNL1        0.0723
      2 C         140.4333  140.3059  163.7286 C.3     1  UNL1        0.0893
      3 C         139.0513  140.7715  164.0798 C.3     1  UNL1        0.0386
      4 C         138.2295  140.0012  165.0705 C.3     1  UNL1        0.0594
      5 C         137.7945  138.9651  166.0641 C.3     1  UNL1        0.0174
      6 C         138.9158  137.9828  166.2304 C.3     1  UNL1        0.0174
      7 C         140.0439  138.4118  165.3397 C.3     1  UNL1        0.0594
      8 C         140.9935  139.0702  164.3680 C.3     1  UNL1        0.0386
      9 N         139.6198  139.6593  164.6228 N.3     1  UNL1       -0.2751
     10 C         139.2697  141.5256  161.3091 C.3     1  UNL1        0.0718
     11 C         140.7455  141.7266  161.4860 C.ar    1  UNL1        0.1207
     12 N         141.9062  142.3837  160.7997 N.ar    1  UNL1       -0.2309
     13 C         143.1331  142.1394  161.6274 C.ar    1  UNL1        0.0983
     14 C         144.5647  142.5483  161.4450 C.ar    1  UNL1        0.0206
     15 C         145.5938  142.1492  162.4606 C.ar    1  UNL1        0.0016
     16 C         145.1914  141.3411  163.6586 C.ar    1  UNL1        0.0016
     17 C         143.7598  140.9322  163.8409 C.ar    1  UNL1        0.0188
     18 C         142.7307  141.3313  162.8253 C.ar    1  UNL1        0.0785
     19 N         141.2551  141.0762  162.7379 N.ar    1  UNL1       -0.3167
     20 C         141.0834  141.7240  164.0354 C.3     1  UNL1        0.0215
     21 C         140.7444  142.3500  165.3556 C.3     1  UNL1        0.0235
     22 C         141.5379  141.1666  165.8246 C.3     1  UNL1        0.0256
     23 C         141.7576  140.9448  167.2918 C.3     1  UNL1        0.0937
     24 N         141.1839  141.9064  168.2899 N.am    1  UNL1       -0.2795
     25 C         141.4037  141.6845  169.7570 C.2     1  UNL1        0.2247
     26 O         140.8299  142.6461  170.7552 O.2     1  UNL1       -0.2749
     27 C         140.3904  143.0897  167.8208 C.3     1  UNL1        0.0937
     28 C         140.1706  143.3116  166.3538 C.3     1  UNL1        0.0256
     29 C         140.0686  143.3160  164.4280 C.ar    1  UNL1       -0.0226
     30 C         138.5719  143.3420  164.3327 C.ar    1  UNL1       -0.0043
     31 C         137.8961  144.3080  163.4051 C.ar    1  UNL1       -0.0003
     32 C         138.7171  145.2479  162.5730 C.ar    1  UNL1       -0.0000
     33 C         140.2139  145.2219  162.6684 C.ar    1  UNL1       -0.0003
     34 C         140.8896  144.2559  163.5960 C.ar    1  UNL1       -0.0043
     35 C         142.1972  140.5012  170.2260 C.3     1  UNL1        0.0691
     36 C         140.9341  139.7005  170.3424 C.3     1  UNL1        0.0091
     37 C         143.4602  141.3019  170.1096 C.3     1  UNL1        0.0091
     38 C         142.9906  139.3177  170.6950 C.3     1  UNL1        0.0091
@<TRIPOS>BOND
     1    10    11    1
     2    11    12   ar
     3    12    13   ar
     4    13    14   ar
     5    14    15   ar
     6    15    16   ar
     7    16    17   ar
     8    17    18   ar
     9    18    19   ar
    10     2    19    1
    11     2     3    1
    12     4     3    1
    13     4     5    1
    14     5     6    1
    15     7     6    1
    16     7     8    1
    17     7     9    1
    18     9     1    1
    19     1    20    1
    20    20    21    1
    21    21    29    1
    22    29    30   ar
    23    30    31   ar
    24    31    32   ar
    25    32    33   ar
    26    33    34   ar
    27    21    22    1
    28    22    23    1
    29    23    24    1
    30    24    25   am
    31    25    26    2
    32    25    35    1
    33    35    36    1
    34    35    37    1
    35    35    38    1
    36    24    27    1
    37    27    28    1
    38    19    11   ar
    39     8     2    1
    40    28    21    1
    41    18    13   ar
    42     9     4    1
    43    34    29   ar
@<TRIPOS>MOLECULE
*****
 38 43 0 0 0
SMALL
GASTEIGER

@<TRIPOS>ATOM
      1 C         141.3009  141.9581  163.8133 C.3     1  UNL1        0.0723
      2 C         141.1849  142.0401  163.7465 C.3     1  UNL1        0.0893
      3 C         141.0067  142.7170  165.0733 C.3     1  UNL1        0.0386
      4 C         139.9485  143.7663  165.2438 C.3     1  UNL1        0.0594
      5 C         138.8169  144.7100  164.9630 C.3     1  UNL1        0.0174
      6 C         138.4117  144.5343  163.5295 C.3     1  UNL1        0.0174
      7 C         139.2928  143.4820  162.9243 C.3     1  UNL1        0.0594
      8 C         140.3049  142.4127  162.5904 C.3     1  UNL1        0.0386
      9 N         140.2427  143.0074  163.9838 N.3     1  UNL1       -0.2751
     10 C         143.4300  141.7295  165.6330 C.3     1  UNL1        0.0718
     11 C         143.4147  140.7643  164.4849 C.ar    1  UNL1        0.1207
     12 N         144.2112  139.6172  163.9372 N.ar    1  UNL1       -0.2309
     13 C         143.5318  139.1348  162.6899 C.ar    1  UNL1        0.0983
     14 C         143.8637  138.0323  161.7286 C.ar    1  UNL1        0.0206
     15 C         142.9792  137.7786  160.5440 C.ar    1  UNL1        0.0016
     16 C         141.7628  138.6275  160.3207 C.ar    1  UNL1        0.0016
     17 C         141.4310  139.7301  161.2820 C.ar    1  UNL1        0.0188
     18 C         142.3155  139.9837  162.4666 C.ar    1  UNL1        0.0785
     19 N         142.2431  140.9908  163.5760 N.ar    1  UNL1       -0.3167
     20 C         140.9741  140.5156  164.0639 C.3     1  UNL1        0.0215
     21 C         139.9873  140.1445  165.1307 C.3     1  UNL1        0.0235
     22 C         141.0564  140.7752  165.9729 C.3     1  UNL1        0.0256
     23 C         140.8863  140.8605  167.4608 C.3     1  UNL1        0.0937
     24 N         139.6471  140.3152  168.1065 N.am    1  UNL1       -0.2795
     25 C         139.4771  140.4005  169.5944 C.2     1  UNL1        0.2247
     26 O         138.2379  139.8551  170.2401 O.2     1  UNL1       -0.2749
     27 C         138.5780  139.6845  167.2643 C.3     1  UNL1        0.0937
     28 C         138.7480  139.5991  165.7765 C.3     1  UNL1        0.0256
     29 C         139.2608  139.6427  163.9180 C.ar    1  UNL1       -0.0226
     30 C         139.5819  138.2886  163.3583 C.ar    1  UNL1       -0.0043
     31 C         138.8555  137.7868  162.1456 C.ar    1  UNL1       -0.0003
     32 C         137.8080  138.6391  161.4928 C.ar    1  UNL1       -0.0000
     33 C         137.4869  139.9933  162.0525 C.ar    1  UNL1       -0.0003
     34 C         138.2134  140.4950  163.2652 C.ar    1  UNL1       -0.0043
     35 C         140.5462  141.0312  170.4365 C.3     1  UNL1        0.0691
     36 C         141.2919  139.7299  170.4642 C.3     1  UNL1        0.0091
     37 C         139.8005  142.3323  170.4087 C.3     1  UNL1        0.0091
     38 C         141.6154  141.6618  171.2786 C.3     1  UNL1        0.0091
@<TRIPOS>BOND
     1    10    11    1
     2    11    12   ar
     3    12    13   ar
     4    13    14   ar
     5    14    15   ar
     6    15    16   ar
     7    16    17   ar
     8    17    18   ar
     9    18    19   ar
    10     2    19    1
    11     2     3    1
    12     4     3    1
    13     4     5    1
    14     5     6    1
    15     7     6    1
    16     7     8    1
    17     7     9    1
    18     9     1    1
    19     1    20    1
    20    20    21    1
    21    21    29    1
    22    29    30   ar
    23    30    31   ar
    24    31    32   ar
    25    32    33   ar
    26    33    34   ar
    27    21    22    1
    28    22    23    1
    29    23    24    1
    30    24    25   am
    31    25    26    2
    32    25    35    1
    33    35    36    1
    34    35    37    1
    35    35    38    1
    36    24    27    1
    37    27    28    1
    38    19    11   ar
    39     8     2    1
    40    28    21    1
    41    18    13   ar
    42     9     4    1
    43    34    29   ar
@<TRIPOS>MOLECULE
*****
 38 43 0 0 0
SMALL
GASTEIGER

@<TRIPOS>ATOM
      1 C         139.8329  142.1586  163.4828 C.3     1  UNL1        0.0723
      2 C         139.7425  142.0887  163.5904 C.3     1  UNL1        0.0893
      3 C         140.6232  140.8846  163.4325 C.3     1  UNL1        0.0386
      4 C         140.3548  139.6482  164.2384 C.3     1  UNL1        0.0594
      5 C         139.7376  138.6814  165.2049 C.3     1  UNL1        0.0174
      6 C         138.5658  139.3579  165.8526 C.3     1  UNL1        0.0174
      7 C         138.4589  140.7428  165.2863 C.3     1  UNL1        0.0594
      8 C         138.5937  142.0562  164.5542 C.3     1  UNL1        0.0386
      9 N         139.5646  140.9223  164.2886 N.3     1  UNL1       -0.2751
     10 C         139.0206  144.7868  164.5361 C.3     1  UNL1        0.0718
     11 C         139.6776  144.7305  163.1888 C.ar    1  UNL1        0.1207
     12 N         140.1204  145.6470  162.0870 N.ar    1  UNL1       -0.2309
     13 C         140.7274  144.8080  161.0019 C.ar    1  UNL1        0.0983
     14 C         141.3329  145.1653  159.6769 C.ar    1  UNL1        0.0206
     15 C         141.8708  144.0875  158.7831 C.ar    1  UNL1        0.0016
     16 C         141.8032  142.6524  159.2142 C.ar    1  UNL1        0.0016
     17 C         141.1976  142.2951  160.5392 C.ar    1  UNL1        0.0188
     18 C         140.6597  143.3729  161.4330 C.ar    1  UNL1        0.0785
     19 N         140.0109  143.3250  162.7846 N.ar    1  UNL1       -0.3167
     20 C         140.9716  143.0624  163.8525 C.3     1  UNL1        0.0215
     21 C         141.8803  142.6977  164.9887 C.3     1  UNL1        0.0235
     22 C         140.6084  142.9494  165.7430 C.3     1  UNL1        0.0256
     23 C         140.5774  142.7930  167.2345 C.3     1  UNL1        0.0937
     24 N         141.8183  142.3847  167.9717 N.am    1  UNL1       -0.2795
     25 C         141.7873  142.2283  169.4632 C.2     1  UNL1        0.2247
     26 O         143.0282  141.8200  170.2005 O.2     1  UNL1       -0.2749
     27 C         143.0902  142.1329  167.2174 C.3     1  UNL1        0.0937
     28 C         143.1212  142.2894  165.7260 C.3     1  UNL1        0.0256
     29 C         142.8366  142.5725  163.8398 C.ar    1  UNL1       -0.0226
     30 C         143.2921  141.2169  163.3874 C.ar    1  UNL1       -0.0043
     31 C         144.2485  141.0918  162.2385 C.ar    1  UNL1       -0.0003
     32 C         144.7492  142.3224  161.5422 C.ar    1  UNL1       -0.0000
     33 C         144.2936  143.6781  161.9946 C.ar    1  UNL1       -0.0003
     34 C         143.3373  143.8031  163.1435 C.ar    1  UNL1       -0.0043
     35 C         140.5154  142.4801  170.2174 C.3     1  UNL1        0.0691
     36 C         140.7289  143.9588  170.0836 C.3     1  UNL1        0.0091
     37 C         140.3020  141.0014  170.3513 C.3     1  UNL1        0.0091
     38 C         139.2435  142.7320  170.9716 C.3     1  UNL1        0.0091
@<TRIPOS>BOND
     1    10    11    1
     2    11    12   ar
     3    12    13   ar
     4    13    14   ar
     5    14    15   ar
     6    15    16   ar
     7    16    17   ar
     8    17    18   ar
     9    18    19   ar
    10     2    19    1
    11     2     3    1
    12     4     3    1
    13     4     5    1
    14     5     6    1
    15     7     6    1
    16     7     8    1
    17     7     9    1
    18     9     1    1
    19     1    20    1
    20    20    21    1
    21    21    29    1
    22    29    30   ar
    23    30    31   ar
    24    31    32   ar
    25    32    33   ar
    26    33    34   ar
    27    21    22    1
    28    22    23    1
    29    23    24    1
    30    24    25   am
    31    25    26    2
    32    25    35    1
    33    35    36    1
    34    35    37    1
    35    35    38    1
    36    24    27    1
    37    27    28    1
    38    19    11   ar
    39     8     2    1
    40    28    21    1
    41    18    13   ar
    42     9     4    1
    43    34    29   ar
