@<TRIPOS>MOLECULE
*****
 56 59 0 0 0
SMALL
GASTEIGER

@<TRIPOS>ATOM
      1 C         140.2373  143.8602  162.4792 C.3     1  UNL1        0.1486
      2 C         139.1609  143.1082  161.7540 C.2     1  UNL1        0.2406
      3 O         137.7363  143.5702  161.8382 O.2     1  UNL1       -0.2733
      4 N         139.5091  141.8943  160.9446 N.am    1  UNL1       -0.2967
      5 H         140.4441  141.5911  160.8894 H       1  UNL1        0.1499
      6 C         138.4327  141.1423  160.2194 C.3     1  UNL1        0.1530
      7 C         138.1921  141.3971  158.7610 C.2     1  UNL1        0.2409
      8 O         138.5812  142.7131  158.1553 O.2     1  UNL1       -0.2733
      9 N         137.5626  140.3358  157.9081 N.am    1  UNL1       -0.2983
     10 H         137.3073  139.4721  158.3055 H       1  UNL1        0.1498
     11 C         137.3221  140.5906  156.4495 C.3     1  UNL1        0.1319
     12 C         136.1364  141.4001  156.0151 C.2     1  UNL1        0.1948
     13 O         136.2967  142.8592  155.7067 O.2     1  UNL1       -0.2918
     14 C         134.7903  140.7503  155.8891 C.3     1  UNL1        0.1723
     15 C         134.3506  141.1046  154.9526 C.3     1  UNL1        0.0399
     16 C         133.6003  139.8980  156.2169 C.3     1  UNL1        0.1767
     17 O         134.7723  139.9414  157.1522 O.3     1  UNL1       -0.3461
     18 C         138.2674  140.0359  155.4254 C.3     1  UNL1        0.0273
     19 C         137.7327  139.4255  154.1640 C.3     1  UNL1        0.0021
     20 C         137.8356  139.8172  153.1482 C.3     1  UNL1        0.0001
     21 C         136.9634  138.1390  154.2208 C.3     1  UNL1        0.0001
     22 C         137.5967  140.1357  160.9527 C.3     1  UNL1        0.0553
     23 C         138.0947  139.5393  162.2358 C.ar    1  UNL1       -0.0200
     24 C         137.8747  140.2597  163.5329 C.ar    1  UNL1       -0.0042
     25 C         138.3727  139.6633  164.8160 C.ar    1  UNL1       -0.0003
     26 C         139.0907  138.3465  164.8020 C.ar    1  UNL1       -0.0000
     27 C         139.3108  137.6259  163.5049 C.ar    1  UNL1       -0.0003
     28 C         138.8128  138.2223  162.2218 C.ar    1  UNL1       -0.0042
     29 N         141.6758  143.6581  162.1049 N.am    1  UNL1       -0.2970
     30 C         142.3310  142.3286  162.3352 C.2     1  UNL1        0.2406
     31 O         141.5478  141.2011  162.9397 O.2     1  UNL1       -0.2733
     32 H         142.1899  144.3980  161.7081 H       1  UNL1        0.1499
     33 C         143.7694  142.1265  161.9609 C.3     1  UNL1        0.1489
     34 N         144.1223  141.3173  160.7482 N.am    1  UNL1       -0.2972
     35 C         143.7278  141.7997  159.3838 C.2     1  UNL1        0.2391
     36 O         142.9805  143.0913  159.2321 O.2     1  UNL1       -0.2736
     37 H         144.6128  140.4695  160.8478 H       1  UNL1        0.1499
     38 C         144.0807  140.9905  158.1711 C.3     1  UNL1        0.1585
     39 N         145.2479  141.3888  157.3173 N.3     1  UNL1       -0.2607
     40 C         146.1714  142.4802  157.7712 C.3     1  UNL1        0.1050
     41 C         147.3386  142.8785  156.9174 C.3     1  UNL1        0.1595
     42 O         147.5822  142.1855  155.6096 O.3     1  UNL1       -0.3508
     43 C         146.6588  141.0941  155.1556 C.3     1  UNL1        0.1595
     44 C         145.4915  140.6958  156.0095 C.3     1  UNL1        0.1050
     45 C         144.8550  142.7337  162.7993 C.3     1  UNL1        0.0337
     46 C         145.2733  142.0719  164.0787 C.3     1  UNL1        0.0286
     47 C         144.3644  141.0800  164.7422 C.ar    1  UNL1       -0.0221
     48 C         143.4489  141.5223  165.8449 C.ar    1  UNL1       -0.0043
     49 C         142.5400  140.5304  166.5083 C.ar    1  UNL1       -0.0003
     50 C         142.5467  139.0962  166.0689 C.ar    1  UNL1       -0.0000
     51 C         143.4623  138.6539  164.9662 C.ar    1  UNL1       -0.0003
     52 C         144.3711  139.6458  164.3028 C.ar    1  UNL1       -0.0043
     53 C         139.8753  144.8142  163.5786 C.3     1  UNL1        0.0290
     54 C         138.3793  145.0253  165.6922 C.3     1  UNL1        0.0001
     55 C         139.4259  144.2888  164.9097 C.3     1  UNL1        0.0021
     56 C         140.0230  143.0269  165.4584 C.3     1  UNL1        0.0001
@<TRIPOS>BOND
     1    54    55    1
     2    55    56    1
     3    55    53    1
     4     1    53    1
     5     1    29    1
     6    29    30   am
     7    30    31    2
     8    30    33    1
     9    33    45    1
    10    45    46    1
    11    46    47    1
    12    47    48   ar
    13    48    49   ar
    14    49    50   ar
    15    50    51   ar
    16    51    52   ar
    17    33    34    1
    18    34    35   am
    19    35    36    2
    20    35    38    1
    21    38    39    1
    22    39    40    1
    23    40    41    1
    24    41    42    1
    25    42    43    1
    26    43    44    1
    27     1     2    1
    28     2     3    2
    29     2     4   am
    30     4     6    1
    31     6    22    1
    32    22    23    1
    33    23    24   ar
    34    24    25   ar
    35    25    26   ar
    36    26    27   ar
    37    27    28   ar
    38     6     7    1
    39     7     8    2
    40     7     9   am
    41     9    11    1
    42    11    18    1
    43    18    19    1
    44    19    20    1
    45    19    21    1
    46    11    12    1
    47    12    13    2
    48    12    14    1
    49    14    15    1
    50    14    16    1
    51    16    17    1
    52    52    47   ar
    53    44    39    1
    54    28    23   ar
    55    17    14    1
    56    29    32    1
    57    34    37    1
    58     4     5    1
    59     9    10    1
@<TRIPOS>MOLECULE
*****
 56 59 0 0 0
SMALL
GASTEIGER

@<TRIPOS>ATOM
      1 C         141.6581  144.9075  157.9856 C.3     1  UNL1        0.1486
      2 C         142.1592  143.6612  157.3181 C.2     1  UNL1        0.2406
      3 O         141.1859  142.6365  156.8151 O.2     1  UNL1       -0.2733
      4 N         143.6336  143.4394  157.1535 N.am    1  UNL1       -0.2967
      5 H         144.2724  144.1119  157.4836 H       1  UNL1        0.1499
      6 C         144.1347  142.1931  156.4860 C.3     1  UNL1        0.1530
      7 C         143.9905  140.8661  157.1701 C.2     1  UNL1        0.2409
      8 O         144.6513  139.6492  156.5933 O.2     1  UNL1       -0.2733
      9 N         143.1857  140.7558  158.4311 N.am    1  UNL1       -0.2983
     10 H         142.7520  141.5545  158.8097 H       1  UNL1        0.1498
     11 C         143.0415  139.4287  159.1152 C.3     1  UNL1        0.1319
     12 C         142.1823  138.3605  158.5065 C.2     1  UNL1        0.1948
     13 O         142.7558  137.0016  158.2334 O.2     1  UNL1       -0.2918
     14 C         140.7495  138.6511  158.1709 C.3     1  UNL1        0.1723
     15 C         140.1555  138.3891  159.0508 C.3     1  UNL1        0.0399
     16 C         139.5447  139.0832  157.3887 C.3     1  UNL1        0.1767
     17 O         140.9085  139.1592  156.7685 O.3     1  UNL1       -0.3461
     18 C         143.7567  139.1698  160.4081 C.3     1  UNL1        0.0273
     19 C         142.9728  138.9545  161.6687 C.3     1  UNL1        0.0021
     20 C         143.0641  138.1167  162.3655 C.3     1  UNL1        0.0001
     21 C         141.9335  139.9526  162.0854 C.3     1  UNL1        0.0001
     22 C         144.7799  142.2739  155.1343 C.3     1  UNL1        0.0553
     23 C         146.2683  142.1398  155.0045 C.ar    1  UNL1       -0.0200
     24 C         147.1427  142.2844  156.2146 C.ar    1  UNL1       -0.0042
     25 C         148.6311  142.1504  156.0848 C.ar    1  UNL1       -0.0003
     26 C         149.2450  141.8718  154.7449 C.ar    1  UNL1       -0.0000
     27 C         148.3705  141.7271  153.5347 C.ar    1  UNL1       -0.0003
     28 C         146.8822  141.8612  153.6645 C.ar    1  UNL1       -0.0042
     29 N         141.2009  144.8615  159.4135 N.am    1  UNL1       -0.2970
     30 C         142.0323  144.1581  160.4450 C.2     1  UNL1        0.2406
     31 O         143.3210  143.5008  160.0487 O.2     1  UNL1       -0.2733
     32 H         140.3550  145.2929  159.6737 H       1  UNL1        0.1499
     33 C         141.5750  144.1122  161.8728 C.3     1  UNL1        0.1489
     34 N         140.3819  143.2859  162.2520 N.am    1  UNL1       -0.2972
     35 C         139.0060  143.8792  162.1825 C.2     1  UNL1        0.2391
     36 O         138.8232  145.2987  161.7338 O.2     1  UNL1       -0.2736
     37 H         140.5019  142.3542  162.5466 H       1  UNL1        0.1499
     38 C         137.8129  143.0529  162.5617 C.3     1  UNL1        0.1585
     39 N         137.9858  141.6071  162.9219 N.3     1  UNL1       -0.2607
     40 C         137.9052  140.5540  161.8568 C.3     1  UNL1        0.1050
     41 C         138.0780  139.1082  162.2170 C.3     1  UNL1        0.1595
     42 O         138.3314  138.7155  163.6423 O.3     1  UNL1       -0.3508
     43 C         138.4120  139.7685  164.7074 C.3     1  UNL1        0.1595
     44 C         138.2392  141.2144  164.3472 C.3     1  UNL1        0.1050
     45 C         142.3108  144.8925  162.9215 C.3     1  UNL1        0.0337
     46 C         142.7264  144.2254  164.1991 C.3     1  UNL1        0.0286
     47 C         143.5794  142.9921  164.1583 C.ar    1  UNL1       -0.0221
     48 C         144.7743  142.9363  163.2533 C.ar    1  UNL1       -0.0043
     49 C         145.6272  141.7031  163.2125 C.ar    1  UNL1       -0.0003
     50 C         145.2851  140.5257  164.0767 C.ar    1  UNL1       -0.0000
     51 C         144.0902  140.5815  164.9816 C.ar    1  UNL1       -0.0003
     52 C         143.2373  141.8147  165.0224 C.ar    1  UNL1       -0.0043
     53 C         141.6143  146.1997  157.2253 C.3     1  UNL1        0.0290
     54 C         140.9371  145.9398  154.7305 C.3     1  UNL1        0.0001
     55 C         140.6129  146.3886  156.1246 C.3     1  UNL1        0.0021
     56 C         139.2873  147.0264  156.4180 C.3     1  UNL1        0.0001
@<TRIPOS>BOND
     1    54    55    1
     2    55    56    1
     3    55    53    1
     4     1    53    1
     5     1    29    1
     6    29    30   am
     7    30    31    2
     8    30    33    1
     9    33    45    1
    10    45    46    1
    11    46    47    1
    12    47    48   ar
    13    48    49   ar
    14    49    50   ar
    15    50    51   ar
    16    51    52   ar
    17    33    34    1
    18    34    35   am
    19    35    36    2
    20    35    38    1
    21    38    39    1
    22    39    40    1
    23    40    41    1
    24    41    42    1
    25    42    43    1
    26    43    44    1
    27     1     2    1
    28     2     3    2
    29     2     4   am
    30     4     6    1
    31     6    22    1
    32    22    23    1
    33    23    24   ar
    34    24    25   ar
    35    25    26   ar
    36    26    27   ar
    37    27    28   ar
    38     6     7    1
    39     7     8    2
    40     7     9   am
    41     9    11    1
    42    11    18    1
    43    18    19    1
    44    19    20    1
    45    19    21    1
    46    11    12    1
    47    12    13    2
    48    12    14    1
    49    14    15    1
    50    14    16    1
    51    16    17    1
    52    52    47   ar
    53    44    39    1
    54    28    23   ar
    55    17    14    1
    56    29    32    1
    57    34    37    1
    58     4     5    1
    59     9    10    1
@<TRIPOS>MOLECULE
*****
 56 59 0 0 0
SMALL
GASTEIGER

@<TRIPOS>ATOM
      1 C         141.4306  138.7779  161.3690 C.3     1  UNL1        0.1486
      2 C         141.7296  140.0749  162.0607 C.2     1  UNL1        0.2406
      3 O         140.6669  140.7542  162.8728 O.2     1  UNL1       -0.2733
      4 N         143.0911  140.6926  161.9403 N.am    1  UNL1       -0.2967
      5 H         143.7885  140.2468  161.4073 H       1  UNL1        0.1499
      6 C         143.3901  141.9896  162.6320 C.3     1  UNL1        0.1530
      7 C         142.8251  143.2722  162.0976 C.2     1  UNL1        0.2409
      8 O         143.6699  144.5115  162.0738 O.2     1  UNL1       -0.2733
      9 N         141.4153  143.3156  161.5871 N.am    1  UNL1       -0.2983
     10 H         140.8609  142.5022  161.6027 H       1  UNL1        0.1498
     11 C         140.8504  144.5983  161.0527 C.3     1  UNL1        0.1319
     12 C         139.7992  145.3355  161.8283 C.2     1  UNL1        0.1948
     13 O         139.6938  146.8277  161.7177 O.2     1  UNL1       -0.2918
     14 C         138.8533  144.5804  162.7144 C.3     1  UNL1        0.1723
     15 C         139.0143  144.9404  163.7343 C.3     1  UNL1        0.0399
     16 C         137.7865  143.6153  163.1394 C.3     1  UNL1        0.1767
     17 O         138.1767  143.7134  161.6943 O.3     1  UNL1       -0.3461
     18 C         141.3366  145.1438  159.7427 C.3     1  UNL1        0.0273
     19 C         140.4522  145.0882  158.5325 C.3     1  UNL1        0.0021
     20 C         140.2901  145.8827  157.7988 C.3     1  UNL1        0.0001
     21 C         139.6739  143.8424  158.2289 C.3     1  UNL1        0.0001
     22 C         144.2541  142.0039  163.8580 C.3     1  UNL1        0.0553
     23 C         143.6906  141.5674  165.1779 C.ar    1  UNL1       -0.0200
     24 C         143.3577  140.1235  165.4106 C.ar    1  UNL1       -0.0042
     25 C         142.7942  139.6870  166.7304 C.ar    1  UNL1       -0.0003
     26 C         142.5636  140.6945  167.8175 C.ar    1  UNL1       -0.0000
     27 C         142.8965  142.1385  167.5848 C.ar    1  UNL1       -0.0003
     28 C         143.4600  142.5750  166.2650 C.ar    1  UNL1       -0.0042
     29 N         141.1863  138.7560  159.8892 N.am    1  UNL1       -0.2970
     30 C         142.3447  138.7968  158.9372 C.2     1  UNL1        0.2406
     31 O         143.7474  138.8595  159.4649 O.2     1  UNL1       -0.2733
     32 H         140.2657  138.7149  159.5428 H       1  UNL1        0.1499
     33 C         142.1004  138.7749  157.4574 C.3     1  UNL1        0.1489
     34 N         141.2379  139.8260  156.8240 N.am    1  UNL1       -0.2972
     35 C         139.7439  139.7131  156.8950 C.2     1  UNL1        0.2391
     36 O         139.1124  138.5491  157.5994 O.2     1  UNL1       -0.2736
     37 H         141.6524  140.5900  156.3616 H       1  UNL1        0.1499
     38 C         138.8813  140.7643  156.2616 C.3     1  UNL1        0.1585
     39 N         137.4944  140.4212  155.8047 N.3     1  UNL1       -0.2607
     40 C         136.3069  141.0266  156.4927 C.3     1  UNL1        0.1050
     41 C         134.9200  140.6835  156.0358 C.3     1  UNL1        0.1595
     42 O         134.7206  139.7350  154.8910 O.3     1  UNL1       -0.3508
     43 C         135.9080  139.1296  154.2030 C.3     1  UNL1        0.1595
     44 C         137.2950  139.4727  154.6599 C.3     1  UNL1        0.1050
     45 C         142.7187  137.7019  156.6109 C.3     1  UNL1        0.0337
     46 C         142.9455  136.3336  157.1820 C.3     1  UNL1        0.0286
     47 C         142.5508  135.1181  156.3965 C.ar    1  UNL1       -0.0221
     48 C         142.9231  133.7519  156.8912 C.ar    1  UNL1       -0.0043
     49 C         142.5284  132.5365  156.1057 C.ar    1  UNL1       -0.0003
     50 C         141.7614  132.6874  154.8255 C.ar    1  UNL1       -0.0000
     51 C         141.3891  134.0536  154.3308 C.ar    1  UNL1       -0.0003
     52 C         141.7838  135.2690  155.1163 C.ar    1  UNL1       -0.0043
     53 C         141.3758  137.5028  162.1572 C.3     1  UNL1        0.0290
     54 C         139.0162  137.6253  163.2377 C.3     1  UNL1        0.0001
     55 C         140.4946  137.4063  163.3671 C.3     1  UNL1        0.0021
     56 C         141.0916  137.0908  164.7065 C.3     1  UNL1        0.0001
@<TRIPOS>BOND
     1    54    55    1
     2    55    56    1
     3    55    53    1
     4     1    53    1
     5     1    29    1
     6    29    30   am
     7    30    31    2
     8    30    33    1
     9    33    45    1
    10    45    46    1
    11    46    47    1
    12    47    48   ar
    13    48    49   ar
    14    49    50   ar
    15    50    51   ar
    16    51    52   ar
    17    33    34    1
    18    34    35   am
    19    35    36    2
    20    35    38    1
    21    38    39    1
    22    39    40    1
    23    40    41    1
    24    41    42    1
    25    42    43    1
    26    43    44    1
    27     1     2    1
    28     2     3    2
    29     2     4   am
    30     4     6    1
    31     6    22    1
    32    22    23    1
    33    23    24   ar
    34    24    25   ar
    35    25    26   ar
    36    26    27   ar
    37    27    28   ar
    38     6     7    1
    39     7     8    2
    40     7     9   am
    41     9    11    1
    42    11    18    1
    43    18    19    1
    44    19    20    1
    45    19    21    1
    46    11    12    1
    47    12    13    2
    48    12    14    1
    49    14    15    1
    50    14    16    1
    51    16    17    1
    52    52    47   ar
    53    44    39    1
    54    28    23   ar
    55    17    14    1
    56    29    32    1
    57    34    37    1
    58     4     5    1
    59     9    10    1
@<TRIPOS>MOLECULE
*****
 56 59 0 0 0
SMALL
GASTEIGER

@<TRIPOS>ATOM
      1 C         139.2595  142.7951  162.0904 C.3     1  UNL1        0.1486
      2 C         138.7839  141.6666  161.2242 C.2     1  UNL1        0.2406
      3 O         137.3362  141.2739  161.2320 O.2     1  UNL1       -0.2733
      4 N         139.7558  140.9310  160.3501 N.am    1  UNL1       -0.2967
      5 H         140.7060  141.1887  160.3450 H       1  UNL1        0.1499
      6 C         139.2802  139.8025  159.4839 C.3     1  UNL1        0.1530
      7 C         138.8737  140.0666  158.0644 C.2     1  UNL1        0.2409
      8 O         138.7967  138.9344  157.0833 O.2     1  UNL1       -0.2733
      9 N         138.5442  141.4627  157.6259 N.am    1  UNL1       -0.2983
     10 H         138.5948  142.2057  158.2698 H       1  UNL1        0.1498
     11 C         138.1378  141.7267  156.2063 C.3     1  UNL1        0.1319
     12 C         136.7705  142.2652  155.9055 C.2     1  UNL1        0.1948
     13 O         136.5490  143.7465  155.8239 O.2     1  UNL1       -0.2918
     14 C         135.6247  141.3223  155.6861 C.3     1  UNL1        0.1723
     15 C         135.1631  141.5961  154.7334 C.3     1  UNL1        0.0399
     16 C         134.6546  140.2032  155.9245 C.3     1  UNL1        0.1767
     17 O         135.7327  140.4878  156.9279 O.3     1  UNL1       -0.3461
     18 C         139.0986  141.4522  155.0877 C.3     1  UNL1        0.0273
     19 C         140.4961  141.9937  155.1494 C.3     1  UNL1        0.0021
     20 C         141.4230  141.4172  155.2137 C.3     1  UNL1        0.0001
     21 C         140.7280  143.4755  155.1252 C.3     1  UNL1        0.0001
     22 C         139.2110  138.4100  160.0372 C.3     1  UNL1        0.0553
     23 C         139.6081  138.1476  161.4596 C.ar    1  UNL1       -0.0200
     24 C         138.5806  138.2171  162.5502 C.ar    1  UNL1       -0.0042
     25 C         138.9777  137.9546  163.9727 C.ar    1  UNL1       -0.0003
     26 C         140.4024  137.6226  164.3045 C.ar    1  UNL1       -0.0000
     27 C         141.4299  137.5530  163.2139 C.ar    1  UNL1       -0.0003
     28 C         141.0328  137.8155  161.7915 C.ar    1  UNL1       -0.0042
     29 N         140.6737  143.2824  161.9778 N.am    1  UNL1       -0.2970
     30 C         141.8074  142.4016  162.4124 C.2     1  UNL1        0.2406
     31 O         141.5270  141.0335  162.9597 O.2     1  UNL1       -0.2733
     32 H         140.8578  144.1804  161.6185 H       1  UNL1        0.1499
     33 C         143.2215  142.8890  162.2997 C.3     1  UNL1        0.1489
     34 N         144.0654  142.4782  161.1296 N.am    1  UNL1       -0.2972
     35 C         143.7699  143.0230  159.7637 C.2     1  UNL1        0.2391
     36 O         142.6305  143.9787  159.5678 O.2     1  UNL1       -0.2736
     37 H         144.8132  141.8509  161.2582 H       1  UNL1        0.1499
     38 C         144.6138  142.6122  158.5936 C.3     1  UNL1        0.1585
     39 N         144.3362  141.3191  157.8860 N.3     1  UNL1       -0.2607
     40 C         145.0976  140.9660  156.6427 C.3     1  UNL1        0.1050
     41 C         144.8200  139.6729  155.9350 C.3     1  UNL1        0.1595
     42 O         143.7811  138.7329  156.4706 O.3     1  UNL1       -0.3508
     43 C         143.0197  139.0859  157.7138 C.3     1  UNL1        0.1595
     44 C         143.2973  140.3790  158.4215 C.3     1  UNL1        0.1050
     45 C         143.7918  143.7873  163.3571 C.3     1  UNL1        0.0337
     46 C         144.4390  143.1960  164.5742 C.3     1  UNL1        0.0286
     47 C         144.1961  141.7591  164.9297 C.ar    1  UNL1       -0.0221
     48 C         145.0138  140.6787  164.2862 C.ar    1  UNL1       -0.0043
     49 C         144.7709  139.2419  164.6418 C.ar    1  UNL1       -0.0003
     50 C         143.7102  138.8854  165.6408 C.ar    1  UNL1       -0.0000
     51 C         142.8925  139.9658  166.2842 C.ar    1  UNL1       -0.0003
     52 C         143.1355  141.4026  165.9287 C.ar    1  UNL1       -0.0043
     53 C         138.3211  143.4362  163.0693 C.3     1  UNL1        0.0290
     54 C         139.0808  142.2010  165.2251 C.3     1  UNL1        0.0001
     55 C         138.6636  143.4628  164.5294 C.3     1  UNL1        0.0021
     56 C         138.5889  144.7512  165.2939 C.3     1  UNL1        0.0001
@<TRIPOS>BOND
     1    54    55    1
     2    55    56    1
     3    55    53    1
     4     1    53    1
     5     1    29    1
     6    29    30   am
     7    30    31    2
     8    30    33    1
     9    33    45    1
    10    45    46    1
    11    46    47    1
    12    47    48   ar
    13    48    49   ar
    14    49    50   ar
    15    50    51   ar
    16    51    52   ar
    17    33    34    1
    18    34    35   am
    19    35    36    2
    20    35    38    1
    21    38    39    1
    22    39    40    1
    23    40    41    1
    24    41    42    1
    25    42    43    1
    26    43    44    1
    27     1     2    1
    28     2     3    2
    29     2     4   am
    30     4     6    1
    31     6    22    1
    32    22    23    1
    33    23    24   ar
    34    24    25   ar
    35    25    26   ar
    36    26    27   ar
    37    27    28   ar
    38     6     7    1
    39     7     8    2
    40     7     9   am
    41     9    11    1
    42    11    18    1
    43    18    19    1
    44    19    20    1
    45    19    21    1
    46    11    12    1
    47    12    13    2
    48    12    14    1
    49    14    15    1
    50    14    16    1
    51    16    17    1
    52    52    47   ar
    53    44    39    1
    54    28    23   ar
    55    17    14    1
    56    29    32    1
    57    34    37    1
    58     4     5    1
    59     9    10    1
@<TRIPOS>MOLECULE
*****
 56 59 0 0 0
SMALL
GASTEIGER

@<TRIPOS>ATOM
      1 C         139.9998  138.9177  161.3991 C.3     1  UNL1        0.1486
      2 C         140.6811  140.1107  162.0011 C.2     1  UNL1        0.2406
      3 O         139.9259  141.0178  162.9268 O.2     1  UNL1       -0.2733
      4 N         142.1176  140.3967  161.6775 N.am    1  UNL1       -0.2967
      5 H         142.6132  139.8013  161.0700 H       1  UNL1        0.1499
      6 C         142.7989  141.5897  162.2796 C.3     1  UNL1        0.1530
      7 C         142.4374  142.9710  161.8200 C.2     1  UNL1        0.2409
      8 O         143.4396  144.0823  161.9239 O.2     1  UNL1       -0.2733
      9 N         141.0738  143.2411  161.2565 N.am    1  UNL1       -0.2983
     10 H         140.4160  142.5118  161.1883 H       1  UNL1        0.1498
     11 C         140.7123  144.6225  160.7969 C.3     1  UNL1        0.1319
     12 C         139.8397  145.4930  161.6517 C.2     1  UNL1        0.1948
     13 O         139.3707  146.8213  161.1363 O.2     1  UNL1       -0.2918
     14 C         139.4361  145.0352  163.0219 C.3     1  UNL1        0.1723
     15 C         138.3759  144.7719  162.9717 C.3     1  UNL1        0.0399
     16 C         139.5347  144.6862  164.4775 C.3     1  UNL1        0.1767
     17 O         140.7421  145.1897  163.7434 O.3     1  UNL1       -0.3461
     18 C         141.2236  145.1334  159.4825 C.3     1  UNL1        0.0273
     19 C         140.3734  145.0201  158.2519 C.3     1  UNL1        0.0021
     20 C         139.8632  144.1254  157.8846 C.3     1  UNL1        0.0001
     21 C         140.1525  146.2203  157.3798 C.3     1  UNL1        0.0001
     22 C         143.8417  141.4014  163.3412 C.3     1  UNL1        0.0553
     23 C         143.5508  140.5393  164.5337 C.ar    1  UNL1       -0.0200
     24 C         144.3764  139.3141  164.7927 C.ar    1  UNL1       -0.0042
     25 C         144.0855  138.4519  165.9852 C.ar    1  UNL1       -0.0003
     26 C         142.9690  138.8151  166.9188 C.ar    1  UNL1       -0.0000
     27 C         142.1434  140.0404  166.6599 C.ar    1  UNL1       -0.0003
     28 C         142.4343  140.9025  165.4673 C.ar    1  UNL1       -0.0042
     29 N         139.8425  138.8156  159.9108 N.am    1  UNL1       -0.2970
     30 C         141.0098  138.4132  159.0591 C.2     1  UNL1        0.2406
     31 O         142.3344  138.1129  159.6955 O.2     1  UNL1       -0.2733
     32 H         138.9731  139.0127  159.4931 H       1  UNL1        0.1499
     33 C         140.8524  138.3112  157.5709 C.3     1  UNL1        0.1489
     34 N         140.8164  136.9645  156.9111 N.am    1  UNL1       -0.2972
     35 C         142.0939  136.3031  156.4863 C.2     1  UNL1        0.2391
     36 O         143.4073  136.9883  156.7213 O.2     1  UNL1       -0.2736
     37 H         139.9543  136.5148  156.7569 H       1  UNL1        0.1499
     38 C         142.0578  134.9565  155.8265 C.3     1  UNL1        0.1585
     39 N         143.0516  133.9030  156.2172 N.3     1  UNL1       -0.2607
     40 C         143.3997  132.8065  155.2547 C.3     1  UNL1        0.1050
     41 C         144.3934  131.7530  155.6454 C.3     1  UNL1        0.1595
     42 O         145.0391  131.7961  156.9986 O.3     1  UNL1       -0.3508
     43 C         144.6910  132.8926  157.9612 C.3     1  UNL1        0.1595
     44 C         143.6972  133.9461  157.5705 C.3     1  UNL1        0.1050
     45 C         140.7310  139.5558  156.7424 C.3     1  UNL1        0.0337
     46 C         141.9650  140.2601  156.2618 C.3     1  UNL1        0.0286
     47 C         141.8683  141.6535  155.7147 C.ar    1  UNL1       -0.0221
     48 C         140.7511  142.0173  154.7824 C.ar    1  UNL1       -0.0043
     49 C         140.6544  143.4106  154.2354 C.ar    1  UNL1       -0.0003
     50 C         141.6750  144.4402  154.6207 C.ar    1  UNL1       -0.0000
     51 C         142.7923  144.0763  155.5531 C.ar    1  UNL1       -0.0003
     52 C         142.8889  142.6830  156.1001 C.ar    1  UNL1       -0.0043
     53 C         139.4759  137.8267  162.2852 C.3     1  UNL1        0.0290
     54 C         139.1468  138.1354  164.8439 C.3     1  UNL1        0.0001
     55 C         139.9904  137.6873  163.6873 C.3     1  UNL1        0.0021
     56 C         141.3485  137.0998  163.9328 C.3     1  UNL1        0.0001
@<TRIPOS>BOND
     1    54    55    1
     2    55    56    1
     3    55    53    1
     4     1    53    1
     5     1    29    1
     6    29    30   am
     7    30    31    2
     8    30    33    1
     9    33    45    1
    10    45    46    1
    11    46    47    1
    12    47    48   ar
    13    48    49   ar
    14    49    50   ar
    15    50    51   ar
    16    51    52   ar
    17    33    34    1
    18    34    35   am
    19    35    36    2
    20    35    38    1
    21    38    39    1
    22    39    40    1
    23    40    41    1
    24    41    42    1
    25    42    43    1
    26    43    44    1
    27     1     2    1
    28     2     3    2
    29     2     4   am
    30     4     6    1
    31     6    22    1
    32    22    23    1
    33    23    24   ar
    34    24    25   ar
    35    25    26   ar
    36    26    27   ar
    37    27    28   ar
    38     6     7    1
    39     7     8    2
    40     7     9   am
    41     9    11    1
    42    11    18    1
    43    18    19    1
    44    19    20    1
    45    19    21    1
    46    11    12    1
    47    12    13    2
    48    12    14    1
    49    14    15    1
    50    14    16    1
    51    16    17    1
    52    52    47   ar
    53    44    39    1
    54    28    23   ar
    55    17    14    1
    56    29    32    1
    57    34    37    1
    58     4     5    1
    59     9    10    1
@<TRIPOS>MOLECULE
*****
 56 59 0 0 0
SMALL
GASTEIGER

@<TRIPOS>ATOM
      1 C         141.5037  138.9237  161.1909 C.3     1  UNL1        0.1486
      2 C         141.7958  140.1805  161.9557 C.2     1  UNL1        0.2406
      3 O         140.7411  140.7866  162.8335 O.2     1  UNL1       -0.2733
      4 N         143.1425  140.8314  161.8428 N.am    1  UNL1       -0.2967
      5 H         143.8346  140.4336  161.2667 H       1  UNL1        0.1499
      6 C         143.4345  142.0883  162.6076 C.3     1  UNL1        0.1530
      7 C         142.8679  143.3973  162.1437 C.2     1  UNL1        0.2409
      8 O         143.6868  144.6495  162.2517 O.2     1  UNL1       -0.2733
      9 N         141.4824  143.4543  161.5718 N.am    1  UNL1       -0.2983
     10 H         140.9449  142.6325  161.5009 H       1  UNL1        0.1498
     11 C         140.9158  144.7635  161.1078 C.3     1  UNL1        0.1319
     12 C         140.0250  145.5589  162.0154 C.2     1  UNL1        0.1948
     13 O         139.6718  146.9746  161.6675 O.2     1  UNL1       -0.2918
     14 C         139.4874  144.9386  163.2709 C.3     1  UNL1        0.1723
     15 C         138.4453  144.6716  163.0748 C.3     1  UNL1        0.0399
     16 C         139.4373  144.4218  164.6783 C.3     1  UNL1        0.1767
     17 O         140.7044  145.0213  164.1440 O.3     1  UNL1       -0.3461
     18 C         141.2400  145.2771  159.7363 C.3     1  UNL1        0.0273
     19 C         140.7539  144.5387  158.5246 C.3     1  UNL1        0.0021
     20 C         139.8210  143.9767  158.4267 C.3     1  UNL1        0.0001
     21 C         141.5812  144.5235  157.2735 C.3     1  UNL1        0.0001
     22 C         144.2933  142.0361  163.8363 C.3     1  UNL1        0.0553
     23 C         143.7247  141.5269  165.1277 C.ar    1  UNL1       -0.0200
     24 C         143.4717  140.0596  165.3089 C.ar    1  UNL1       -0.0042
     25 C         142.9031  139.5504  166.6002 C.ar    1  UNL1       -0.0003
     26 C         142.5875  140.5086  167.7103 C.ar    1  UNL1       -0.0000
     27 C         142.8405  141.9760  167.5291 C.ar    1  UNL1       -0.0003
     28 C         143.4091  142.4852  166.2378 C.ar    1  UNL1       -0.0042
     29 N         141.2321  138.9885  159.7171 N.am    1  UNL1       -0.2970
     30 C         142.3712  139.1138  158.7493 C.2     1  UNL1        0.2406
     31 O         143.7820  139.1741  159.2553 O.2     1  UNL1       -0.2733
     32 H         140.3061  138.9489  159.3850 H       1  UNL1        0.1499
     33 C         142.0996  139.1787  157.2756 C.3     1  UNL1        0.1489
     34 N         142.0171  137.9149  156.4718 N.am    1  UNL1       -0.2972
     35 C         143.2341  137.3940  155.7664 C.2     1  UNL1        0.2391
     36 O         144.5335  138.1368  155.8648 O.2     1  UNL1       -0.2736
     37 H         141.1643  137.4273  156.4072 H       1  UNL1        0.1499
     38 C         143.1517  136.1302  154.9626 C.3     1  UNL1        0.1585
     39 N         142.9785  134.8109  155.6550 N.3     1  UNL1       -0.2607
     40 C         143.7019  134.5379  156.9404 C.3     1  UNL1        0.1050
     41 C         143.5288  133.2186  157.6328 C.3     1  UNL1        0.1595
     42 O         142.6323  132.1723  157.0398 O.3     1  UNL1       -0.3508
     43 C         141.9090  132.4452  155.7545 C.3     1  UNL1        0.1595
     44 C         142.0821  133.7646  155.0620 C.3     1  UNL1        0.1050
     45 C         141.9103  140.5074  156.6056 C.3     1  UNL1        0.0337
     46 C         140.9228  140.6486  155.4854 C.3     1  UNL1        0.0286
     47 C         139.6304  141.3755  155.7121 C.ar    1  UNL1       -0.0221
     48 C         139.3337  142.6332  154.9504 C.ar    1  UNL1       -0.0043
     49 C         138.0413  143.3601  155.1772 C.ar    1  UNL1       -0.0003
     50 C         137.0457  142.8293  156.1656 C.ar    1  UNL1       -0.0000
     51 C         137.3424  141.5717  156.9273 C.ar    1  UNL1       -0.0003
     52 C         138.6347  140.8448  156.7005 C.ar    1  UNL1       -0.0043
     53 C         141.4832  137.6020  161.8998 C.3     1  UNL1        0.0290
     54 C         141.2302  137.0246  164.4203 C.3     1  UNL1        0.0001
     55 C         140.6151  137.4125  163.1083 C.3     1  UNL1        0.0021
     56 C         139.1319  137.6109  163.0048 C.3     1  UNL1        0.0001
@<TRIPOS>BOND
     1    54    55    1
     2    55    56    1
     3    55    53    1
     4     1    53    1
     5     1    29    1
     6    29    30   am
     7    30    31    2
     8    30    33    1
     9    33    45    1
    10    45    46    1
    11    46    47    1
    12    47    48   ar
    13    48    49   ar
    14    49    50   ar
    15    50    51   ar
    16    51    52   ar
    17    33    34    1
    18    34    35   am
    19    35    36    2
    20    35    38    1
    21    38    39    1
    22    39    40    1
    23    40    41    1
    24    41    42    1
    25    42    43    1
    26    43    44    1
    27     1     2    1
    28     2     3    2
    29     2     4   am
    30     4     6    1
    31     6    22    1
    32    22    23    1
    33    23    24   ar
    34    24    25   ar
    35    25    26   ar
    36    26    27   ar
    37    27    28   ar
    38     6     7    1
    39     7     8    2
    40     7     9   am
    41     9    11    1
    42    11    18    1
    43    18    19    1
    44    19    20    1
    45    19    21    1
    46    11    12    1
    47    12    13    2
    48    12    14    1
    49    14    15    1
    50    14    16    1
    51    16    17    1
    52    52    47   ar
    53    44    39    1
    54    28    23   ar
    55    17    14    1
    56    29    32    1
    57    34    37    1
    58     4     5    1
    59     9    10    1
@<TRIPOS>MOLECULE
*****
 56 59 0 0 0
SMALL
GASTEIGER

@<TRIPOS>ATOM
      1 C         144.5633  141.8741  158.0253 C.3     1  UNL1        0.1486
      2 C         144.2393  140.8749  159.0961 C.2     1  UNL1        0.2406
      3 O         144.2087  139.4108  158.7713 O.2     1  UNL1       -0.2733
      4 N         143.9461  141.3399  160.4917 N.am    1  UNL1       -0.2967
      5 H         143.9662  142.3008  160.7049 H       1  UNL1        0.1499
      6 C         143.6222  140.3407  161.5626 C.3     1  UNL1        0.1530
      7 C         142.4442  139.4258  161.4033 C.2     1  UNL1        0.2409
      8 O         142.6552  137.9918  161.0170 O.2     1  UNL1       -0.2733
      9 N         141.0553  139.9449  161.6302 N.am    1  UNL1       -0.2983
     10 H         140.9169  140.8861  161.8838 H       1  UNL1        0.1498
     11 C         139.8774  139.0299  161.4709 C.3     1  UNL1        0.1319
     12 C         138.8418  139.3159  160.4241 C.2     1  UNL1        0.1948
     13 O         137.4176  139.5620  160.8255 O.2     1  UNL1       -0.2918
     14 C         139.2305  139.3558  158.9759 C.3     1  UNL1        0.1723
     15 C         139.7656  138.4263  158.7627 C.3     1  UNL1        0.0399
     16 C         139.3738  139.8535  157.5680 C.3     1  UNL1        0.1767
     17 O         138.6589  140.6877  158.5894 O.3     1  UNL1       -0.3461
     18 C         139.7350  137.8291  162.3583 C.3     1  UNL1        0.0273
     19 C         140.0590  137.9334  163.8192 C.3     1  UNL1        0.0021
     20 C         139.6175  138.6235  164.5435 C.3     1  UNL1        0.0001
     21 C         141.0891  137.0272  164.4256 C.3     1  UNL1        0.0001
     22 C         144.4762  140.2564  162.7929 C.3     1  UNL1        0.0553
     23 C         143.8414  140.0253  164.1321 C.ar    1  UNL1       -0.0200
     24 C         142.8180  140.9899  164.6536 C.ar    1  UNL1       -0.0042
     25 C         142.1833  140.7588  165.9929 C.ar    1  UNL1       -0.0003
     26 C         142.5719  139.5629  166.8107 C.ar    1  UNL1       -0.0000
     27 C         143.5954  138.5982  166.2892 C.ar    1  UNL1       -0.0003
     28 C         144.2301  138.8293  164.9499 C.ar    1  UNL1       -0.0042
     29 N         144.0384  143.2758  158.1238 N.am    1  UNL1       -0.2970
     30 C         142.5866  143.5142  158.4163 C.2     1  UNL1        0.2406
     31 O         141.6597  142.3509  158.6103 O.2     1  UNL1       -0.2733
     32 H         144.6467  144.0393  157.9965 H       1  UNL1        0.1499
     33 C         142.0618  144.9159  158.5148 C.3     1  UNL1        0.1489
     34 N         141.7078  145.4918  159.8539 N.am    1  UNL1       -0.2972
     35 C         140.3531  145.2373  160.4453 C.2     1  UNL1        0.2391
     36 O         139.3523  144.4069  159.6978 O.2     1  UNL1       -0.2736
     37 H         142.3646  146.0369  160.3445 H       1  UNL1        0.1499
     38 C         139.9991  145.8133  161.7844 C.3     1  UNL1        0.1585
     39 N         139.6105  144.9045  162.9127 N.3     1  UNL1       -0.2607
     40 C         140.6054  144.5726  163.9851 C.3     1  UNL1        0.1050
     41 C         140.2168  143.6638  165.1134 C.3     1  UNL1        0.1595
     42 O         138.8332  143.0870  165.1693 O.3     1  UNL1       -0.3508
     43 C         137.8383  143.4189  164.0970 C.3     1  UNL1        0.1595
     44 C         138.2269  144.3277  162.9686 C.3     1  UNL1        0.1050
     45 C         141.8909  145.7418  157.2743 C.3     1  UNL1        0.0337
     46 C         141.4601  145.0908  155.9934 C.3     1  UNL1        0.0286
     47 C         140.0144  144.7592  155.7699 C.ar    1  UNL1       -0.0221
     48 C         139.0915  145.7855  155.1827 C.ar    1  UNL1       -0.0043
     49 C         137.6458  145.4538  154.9593 C.ar    1  UNL1       -0.0003
     50 C         137.1230  144.0957  155.3230 C.ar    1  UNL1       -0.0000
     51 C         138.0459  143.0694  155.9102 C.ar    1  UNL1       -0.0003
     52 C         139.4916  143.4011  156.1337 C.ar    1  UNL1       -0.0043
     53 C         145.4120  141.4715  156.8559 C.3     1  UNL1        0.0290
     54 C         146.7033  142.6584  154.9391 C.3     1  UNL1        0.0001
     55 C         146.5300  142.3612  156.3991 C.3     1  UNL1        0.0021
     56 C         147.4747  142.9536  157.4024 C.3     1  UNL1        0.0001
@<TRIPOS>BOND
     1    54    55    1
     2    55    56    1
     3    55    53    1
     4     1    53    1
     5     1    29    1
     6    29    30   am
     7    30    31    2
     8    30    33    1
     9    33    45    1
    10    45    46    1
    11    46    47    1
    12    47    48   ar
    13    48    49   ar
    14    49    50   ar
    15    50    51   ar
    16    51    52   ar
    17    33    34    1
    18    34    35   am
    19    35    36    2
    20    35    38    1
    21    38    39    1
    22    39    40    1
    23    40    41    1
    24    41    42    1
    25    42    43    1
    26    43    44    1
    27     1     2    1
    28     2     3    2
    29     2     4   am
    30     4     6    1
    31     6    22    1
    32    22    23    1
    33    23    24   ar
    34    24    25   ar
    35    25    26   ar
    36    26    27   ar
    37    27    28   ar
    38     6     7    1
    39     7     8    2
    40     7     9   am
    41     9    11    1
    42    11    18    1
    43    18    19    1
    44    19    20    1
    45    19    21    1
    46    11    12    1
    47    12    13    2
    48    12    14    1
    49    14    15    1
    50    14    16    1
    51    16    17    1
    52    52    47   ar
    53    44    39    1
    54    28    23   ar
    55    17    14    1
    56    29    32    1
    57    34    37    1
    58     4     5    1
    59     9    10    1
@<TRIPOS>MOLECULE
*****
 56 59 0 0 0
SMALL
GASTEIGER

@<TRIPOS>ATOM
      1 C         140.0978  142.6521  159.1302 C.3     1  UNL1        0.1486
      2 C         139.6854  142.7357  160.5700 C.2     1  UNL1        0.2406
      3 O         138.5830  143.6660  160.9816 O.2     1  UNL1       -0.2733
      4 N         140.3754  141.8891  161.5981 N.am    1  UNL1       -0.2967
      5 H         141.0989  141.2785  161.3280 H       1  UNL1        0.1499
      6 C         139.9630  141.9727  163.0379 C.3     1  UNL1        0.1530
      7 C         140.8734  142.6141  164.0428 C.2     1  UNL1        0.2409
      8 O         140.5722  143.9909  164.5565 O.2     1  UNL1       -0.2733
      9 N         142.0849  141.8787  164.5341 N.am    1  UNL1       -0.2983
     10 H         142.2826  140.9751  164.1969 H       1  UNL1        0.1498
     11 C         142.9953  142.5201  165.5390 C.3     1  UNL1        0.1319
     12 C         144.0394  143.4983  165.0883 C.2     1  UNL1        0.1948
     13 O         145.0139  144.0644  166.0782 O.2     1  UNL1       -0.2918
     14 C         144.1089  143.9104  163.6478 C.3     1  UNL1        0.1723
     15 C         143.7810  144.9523  163.5970 C.3     1  UNL1        0.0399
     16 C         144.3424  143.8295  162.1682 C.3     1  UNL1        0.1767
     17 O         144.6052  142.6341  163.0354 O.3     1  UNL1       -0.3461
     18 C         142.8616  142.1833  166.9946 C.3     1  UNL1        0.0273
     19 C         141.5465  141.7073  167.5365 C.3     1  UNL1        0.0021
     20 C         141.2708  140.6788  167.7856 C.3     1  UNL1        0.0001
     21 C         140.4406  142.6883  167.7906 C.3     1  UNL1        0.0001
     22 C         138.6403  141.4149  163.4728 C.3     1  UNL1        0.0553
     23 C         138.5825  140.1104  164.2110 C.ar    1  UNL1       -0.0200
     24 C         138.8174  138.8229  163.4782 C.ar    1  UNL1       -0.0042
     25 C         138.7596  137.5184  164.2165 C.ar    1  UNL1       -0.0003
     26 C         138.4671  137.5015  165.6875 C.ar    1  UNL1       -0.0000
     27 C         138.2322  138.7891  166.4204 C.ar    1  UNL1       -0.0003
     28 C         138.2899  140.0935  165.6822 C.ar    1  UNL1       -0.0042
     29 N         141.0001  141.5450  158.6715 N.am    1  UNL1       -0.2970
     30 C         142.4856  141.7505  158.6449 C.2     1  UNL1        0.2406
     31 O         143.0691  143.0631  159.0770 O.2     1  UNL1       -0.2733
     32 H         140.6172  140.6834  158.3880 H       1  UNL1        0.1499
     33 C         143.3878  140.6434  158.1863 C.3     1  UNL1        0.1489
     34 N         143.9838  139.6983  159.1871 N.am    1  UNL1       -0.2972
     35 C         143.1019  139.0095  160.1859 C.2     1  UNL1        0.2391
     36 O         141.6240  139.2657  160.1839 O.2     1  UNL1       -0.2736
     37 H         144.9538  139.5301  159.1884 H       1  UNL1        0.1499
     38 C         143.6978  138.0643  161.1867 C.3     1  UNL1        0.1585
     39 N         143.6093  138.3703  162.6525 N.3     1  UNL1       -0.2607
     40 C         144.7263  139.1033  163.3345 C.3     1  UNL1        0.1050
     41 C         144.6377  139.4092  164.8003 C.3     1  UNL1        0.1595
     42 O         143.4322  138.9822  165.5841 O.3     1  UNL1       -0.3508
     43 C         142.3152  138.2492  164.9021 C.3     1  UNL1        0.1595
     44 C         142.4038  137.9432  163.4363 C.3     1  UNL1        0.1050
     45 C         143.6940  140.4814  156.7268 C.3     1  UNL1        0.0337
     46 C         144.8575  141.2075  156.1195 C.3     1  UNL1        0.0286
     47 C         144.6248  142.4337  155.2873 C.ar    1  UNL1       -0.0221
     48 C         143.3213  143.1695  155.3841 C.ar    1  UNL1       -0.0043
     49 C         143.0886  144.3956  154.5519 C.ar    1  UNL1       -0.0003
     50 C         144.1595  144.8859  153.6230 C.ar    1  UNL1       -0.0000
     51 C         145.4630  144.1501  153.5263 C.ar    1  UNL1       -0.0003
     52 C         145.6957  142.9240  154.3584 C.ar    1  UNL1       -0.0043
     53 C         139.6080  143.6755  158.1491 C.3     1  UNL1        0.0290
     54 C         140.3990  145.6622  156.6735 C.3     1  UNL1        0.0001
     55 C         140.3261  144.9850  158.0100 C.3     1  UNL1        0.0021
     56 C         140.9714  145.6174  159.2074 C.3     1  UNL1        0.0001
@<TRIPOS>BOND
     1    54    55    1
     2    55    56    1
     3    55    53    1
     4     1    53    1
     5     1    29    1
     6    29    30   am
     7    30    31    2
     8    30    33    1
     9    33    45    1
    10    45    46    1
    11    46    47    1
    12    47    48   ar
    13    48    49   ar
    14    49    50   ar
    15    50    51   ar
    16    51    52   ar
    17    33    34    1
    18    34    35   am
    19    35    36    2
    20    35    38    1
    21    38    39    1
    22    39    40    1
    23    40    41    1
    24    41    42    1
    25    42    43    1
    26    43    44    1
    27     1     2    1
    28     2     3    2
    29     2     4   am
    30     4     6    1
    31     6    22    1
    32    22    23    1
    33    23    24   ar
    34    24    25   ar
    35    25    26   ar
    36    26    27   ar
    37    27    28   ar
    38     6     7    1
    39     7     8    2
    40     7     9   am
    41     9    11    1
    42    11    18    1
    43    18    19    1
    44    19    20    1
    45    19    21    1
    46    11    12    1
    47    12    13    2
    48    12    14    1
    49    14    15    1
    50    14    16    1
    51    16    17    1
    52    52    47   ar
    53    44    39    1
    54    28    23   ar
    55    17    14    1
    56    29    32    1
    57    34    37    1
    58     4     5    1
    59     9    10    1
@<TRIPOS>MOLECULE
*****
 56 59 0 0 0
SMALL
GASTEIGER

@<TRIPOS>ATOM
      1 C         144.0941  141.8813  157.6022 C.3     1  UNL1        0.1486
      2 C         143.9556  140.8947  158.7236 C.2     1  UNL1        0.2406
      3 O         144.1806  139.4336  158.4691 O.2     1  UNL1       -0.2733
      4 N         143.5920  141.3691  160.0993 N.am    1  UNL1       -0.2967
      5 H         143.4443  142.3280  160.2663 H       1  UNL1        0.1499
      6 C         143.4534  140.3825  161.2207 C.3     1  UNL1        0.1530
      7 C         142.3075  139.4146  161.2308 C.2     1  UNL1        0.2409
      8 O         142.4868  138.0341  160.6722 O.2     1  UNL1       -0.2733
      9 N         140.9823  139.8273  161.7996 N.am    1  UNL1       -0.2983
     10 H         140.8646  140.7334  162.1662 H       1  UNL1        0.1498
     11 C         139.8363  138.8594  161.8097 C.3     1  UNL1        0.1319
     12 C         138.6708  139.0673  160.8887 C.2     1  UNL1        0.1948
     13 O         137.2770  138.7897  161.3684 O.2     1  UNL1       -0.2918
     14 C         138.8991  139.5529  159.4880 C.3     1  UNL1        0.1723
     15 C         138.3527  140.4942  159.3828 C.3     1  UNL1        0.0399
     16 C         139.4057  139.5982  158.0768 C.3     1  UNL1        0.1767
     17 O         139.7796  138.4537  158.9715 O.3     1  UNL1       -0.3461
     18 C         139.8560  137.6835  162.7408 C.3     1  UNL1        0.0273
     19 C         140.4808  137.8123  164.0984 C.3     1  UNL1        0.0021
     20 C         141.3703  137.2928  164.4654 C.3     1  UNL1        0.0001
     21 C         139.8778  138.7333  165.1173 C.3     1  UNL1        0.0001
     22 C         144.4608  140.3637  162.3319 C.3     1  UNL1        0.0553
     23 C         144.1700  141.0752  163.6200 C.ar    1  UNL1       -0.0200
     24 C         144.6675  142.4742  163.8329 C.ar    1  UNL1       -0.0042
     25 C         144.3766  143.1857  165.1210 C.ar    1  UNL1       -0.0003
     26 C         143.5883  142.4983  166.1961 C.ar    1  UNL1       -0.0000
     27 C         143.0907  141.0993  165.9832 C.ar    1  UNL1       -0.0003
     28 C         143.3816  140.3877  164.6951 C.ar    1  UNL1       -0.0042
     29 N         143.6032  143.2880  157.7760 N.am    1  UNL1       -0.2970
     30 C         142.1820  143.6330  157.4427 C.2     1  UNL1        0.2406
     31 O         141.2516  142.5712  156.9356 O.2     1  UNL1       -0.2733
     32 H         144.2138  143.9849  158.1089 H       1  UNL1        0.1499
     33 C         141.6911  145.0396  157.6165 C.3     1  UNL1        0.1489
     34 N         141.5059  145.6046  158.9937 N.am    1  UNL1       -0.2972
     35 C         140.3909  145.1069  159.8648 C.2     1  UNL1        0.2391
     36 O         139.4611  144.0442  159.3588 O.2     1  UNL1       -0.2736
     37 H         142.1162  146.3021  159.3258 H       1  UNL1        0.1499
     38 C         140.2056  145.6719  161.2419 C.3     1  UNL1        0.1585
     39 N         139.8899  144.7602  162.3904 N.3     1  UNL1       -0.2607
     40 C         138.5675  144.8663  163.0906 C.3     1  UNL1        0.1050
     41 C         138.2518  143.9546  164.2391 C.3     1  UNL1        0.1595
     42 O         139.2583  142.9367  164.6874 O.3     1  UNL1       -0.3508
     43 C         140.5805  142.8306  163.9873 C.3     1  UNL1        0.1595
     44 C         140.8964  143.7424  162.8387 C.3     1  UNL1        0.1050
     45 C         141.3855  145.8814  156.4131 C.3     1  UNL1        0.0337
     46 C         139.9622  146.1986  156.0616 C.3     1  UNL1        0.0286
     47 C         139.5497  147.6192  155.8129 C.ar    1  UNL1       -0.0221
     48 C         139.9614  148.3088  154.5461 C.ar    1  UNL1       -0.0043
     49 C         139.5489  149.7294  154.2974 C.ar    1  UNL1       -0.0003
     50 C         138.7249  150.4603  155.3155 C.ar    1  UNL1       -0.0000
     51 C         138.3132  149.7707  156.5824 C.ar    1  UNL1       -0.0003
     52 C         138.7256  148.3501  156.8311 C.ar    1  UNL1       -0.0043
     53 C         144.7236  141.4612  156.3072 C.3     1  UNL1        0.0290
     54 C         146.6838  141.6328  154.6107 C.3     1  UNL1        0.0001
     55 C         146.1187  141.9001  155.9743 C.3     1  UNL1        0.0021
     56 C         146.9488  142.6064  157.0049 C.3     1  UNL1        0.0001
@<TRIPOS>BOND
     1    54    55    1
     2    55    56    1
     3    55    53    1
     4     1    53    1
     5     1    29    1
     6    29    30   am
     7    30    31    2
     8    30    33    1
     9    33    45    1
    10    45    46    1
    11    46    47    1
    12    47    48   ar
    13    48    49   ar
    14    49    50   ar
    15    50    51   ar
    16    51    52   ar
    17    33    34    1
    18    34    35   am
    19    35    36    2
    20    35    38    1
    21    38    39    1
    22    39    40    1
    23    40    41    1
    24    41    42    1
    25    42    43    1
    26    43    44    1
    27     1     2    1
    28     2     3    2
    29     2     4   am
    30     4     6    1
    31     6    22    1
    32    22    23    1
    33    23    24   ar
    34    24    25   ar
    35    25    26   ar
    36    26    27   ar
    37    27    28   ar
    38     6     7    1
    39     7     8    2
    40     7     9   am
    41     9    11    1
    42    11    18    1
    43    18    19    1
    44    19    20    1
    45    19    21    1
    46    11    12    1
    47    12    13    2
    48    12    14    1
    49    14    15    1
    50    14    16    1
    51    16    17    1
    52    52    47   ar
    53    44    39    1
    54    28    23   ar
    55    17    14    1
    56    29    32    1
    57    34    37    1
    58     4     5    1
    59     9    10    1
