@<TRIPOS>MOLECULE
*****
 42 45 0 0 0
SMALL
GASTEIGER

@<TRIPOS>ATOM
      1 C         145.4432  141.3536  156.7346 C.2     1  UNL1        0.2566
      2 O         145.5683  139.9855  156.1324 O.2     1  UNL1       -0.2721
      3 N         144.3291  141.6519  157.6936 N.am    1  UNL1       -0.2634
      4 C         144.0778  142.9660  158.3719 C.3     1  UNL1        0.1207
      5 C         142.8640  142.8148  159.2402 C.ar    1  UNL1       -0.0030
      6 C         142.1486  143.7769  160.1416 C.ar    1  UNL1        0.0155
      7 C         140.9344  143.3315  160.9013 C.ar    1  UNL1        0.1054
      8 C         140.4356  141.9240  160.7596 C.ar    1  UNL1        0.0181
      9 C         141.1510  140.9619  159.8583 C.ar    1  UNL1       -0.0011
     10 C         142.3652  141.4073  159.0986 C.ar    1  UNL1        0.0022
     11 C         143.2707  140.6886  158.1427 C.3     1  UNL1        0.1751
     12 C         143.1406  139.2578  157.7117 C.2     1  UNL1        0.2485
     13 O         143.2900  138.1549  158.7173 O.2     1  UNL1       -0.2726
     14 N         142.8610  138.9298  156.2749 N.am    1  UNL1       -0.2823
     15 H         142.7629  139.6536  155.6148 H       1  UNL1        0.1549
     16 C         142.7308  137.4989  155.8438 C.ar    1  UNL1        0.0503
     17 C         143.9599  136.6777  155.5887 C.ar    1  UNL1        0.0144
     18 C         143.8297  135.2469  155.1576 C.ar    1  UNL1       -0.0002
     19 C         142.4705  134.6373  154.9818 C.ar    1  UNL1        0.0182
     20 C         141.2415  135.4585  155.2370 C.ar    1  UNL1       -0.0002
     21 C         141.3716  136.8893  155.6680 C.ar    1  UNL1        0.0144
     22 C         142.3403  133.2065  154.5507 C.3     1  UNL1        0.2827
     23 O         142.0774  133.6542  153.1435 O.3     1  UNL1       -0.3692
     24 H         141.9413  132.8784  152.5774 H       1  UNL1        0.2112
     25 C         142.2101  131.7756  154.1198 C.3     1  UNL1        0.4311
     26 F         142.0799  130.3448  153.6889 F       1  UNL1       -0.1669
     27 F         140.7238  131.9445  154.0083 F       1  UNL1       -0.1669
     28 F         143.0718  131.5736  154.1541 F       1  UNL1       -0.1669
     29 C         142.6032  132.7587  155.9580 C.3     1  UNL1        0.4311
     30 F         142.8661  132.3109  157.3653 F       1  UNL1       -0.1669
     31 F         141.7617  132.7712  156.2343 F       1  UNL1       -0.1669
     32 F         144.0912  132.5763  156.0089 F       1  UNL1       -0.1669
     33 S         140.2189  144.2936  161.8027 S.O2    1  UNL1        0.0086
     34 O         139.2311  144.5817  160.7112 O.2     1  UNL1       -0.1686
     35 O         141.2067  144.0056  162.8941 O.2     1  UNL1       -0.1686
     36 C         139.5035  145.2557  162.7040 C.3     1  UNL1        0.1559
     37 C         138.8388  144.7597  163.9540 C.3     1  UNL1        0.0240
     38 C         138.6117  144.8628  165.4331 C.3     1  UNL1        0.0018
     39 C         137.9147  143.7976  164.6398 C.3     1  UNL1        0.0018
     40 C         146.4323  142.4234  156.3777 C.3     1  UNL1        0.2272
     41 C         148.7696  141.7307  155.4793 C.3     1  UNL1        0.1748
     42 O         147.8973  142.1971  156.6070 O.3     1  UNL1       -0.3417
@<TRIPOS>BOND
     1    41    42    1
     2    42    40    1
     3    40     1    1
     4     1     2    2
     5     1     3   am
     6     3     4    1
     7     4     5    1
     8     5     6   ar
     9     6     7   ar
    10     7    33    1
    11    33    34    2
    12    33    35    2
    13    33    36    1
    14    36    37    1
    15    37    38    1
    16    38    39    1
    17     7     8   ar
    18     8     9   ar
    19     9    10   ar
    20    10    11    1
    21    11    12    1
    22    12    13    2
    23    12    14   am
    24    14    16    1
    25    16    17   ar
    26    17    18   ar
    27    18    19   ar
    28    19    22    1
    29    22    23    1
    30    22    25    1
    31    25    26    1
    32    25    27    1
    33    25    28    1
    34    22    29    1
    35    29    30    1
    36    29    31    1
    37    29    32    1
    38    19    20   ar
    39    20    21   ar
    40    11     3    1
    41    21    16   ar
    42    10     5   ar
    43    39    37    1
    44    14    15    1
    45    23    24    1
@<TRIPOS>MOLECULE
*****
 42 45 0 0 0
SMALL
GASTEIGER

@<TRIPOS>ATOM
      1 C         141.2379  143.8329  160.2721 C.2     1  UNL1        0.2566
      2 O         141.1654  144.0656  161.7521 O.2     1  UNL1       -0.2721
      3 N         141.5741  142.4703  159.7427 N.am    1  UNL1       -0.2634
      4 C         141.6824  142.0883  158.2962 C.3     1  UNL1        0.1207
      5 C         142.0362  140.6323  158.2264 C.ar    1  UNL1       -0.0030
      6 C         142.2722  139.7113  157.0662 C.ar    1  UNL1        0.0155
      7 C         142.6185  138.2723  157.3095 C.ar    1  UNL1        0.1054
      8 C         142.7289  137.7543  158.7129 C.ar    1  UNL1        0.0181
      9 C         142.4930  138.6754  159.8730 C.ar    1  UNL1       -0.0011
     10 C         142.1467  140.1144  159.6298 C.ar    1  UNL1        0.0022
     11 C         141.8610  141.2503  160.5669 C.3     1  UNL1        0.1751
     12 C         141.8622  141.1787  162.0652 C.2     1  UNL1        0.2485
     13 O         143.1607  141.1937  162.8158 O.2     1  UNL1       -0.2726
     14 N         140.5646  141.0921  162.8129 N.am    1  UNL1       -0.2823
     15 H         139.7123  141.0823  162.3203 H       1  UNL1        0.1549
     16 C         140.5658  141.0206  164.3112 C.ar    1  UNL1        0.0503
     17 C         140.8498  139.7185  164.9997 C.ar    1  UNL1        0.0144
     18 C         140.8509  139.6469  166.4980 C.ar    1  UNL1       -0.0002
     19 C         140.5680  140.8775  167.3077 C.ar    1  UNL1        0.0182
     20 C         140.2840  142.1795  166.6193 C.ar    1  UNL1       -0.0002
     21 C         140.2829  142.2511  165.1210 C.ar    1  UNL1        0.0144
     22 C         140.5692  140.8060  168.8061 C.3     1  UNL1        0.2827
     23 O         139.4445  139.8145  168.7597 O.3     1  UNL1       -0.3692
     24 H         139.2028  139.5573  169.6632 H       1  UNL1        0.2112
     25 C         140.5704  140.7346  170.3044 C.3     1  UNL1        0.4311
     26 F         140.5716  140.6631  171.8027 F       1  UNL1       -0.1669
     27 F         139.2095  141.3648  170.3355 F       1  UNL1       -0.1669
     28 F         141.3680  140.3600  170.3940 F       1  UNL1       -0.1669
     29 C         141.6939  141.7974  168.8524 C.3     1  UNL1        0.4311
     30 F         142.8186  142.7888  168.8987 F       1  UNL1       -0.1669
     31 F         142.3227  141.2624  168.5317 F       1  UNL1       -0.1669
     32 F         141.0590  143.0412  169.4001 F       1  UNL1       -0.1669
     33 S         142.8545  137.3511  156.1493 S.O2    1  UNL1        0.0086
     34 O         144.2734  137.8290  156.0585 O.2     1  UNL1       -0.1686
     35 O         141.4355  136.8733  156.2402 O.2     1  UNL1       -0.1686
     36 C         143.0904  136.4300  154.9892 C.3     1  UNL1        0.1559
     37 C         143.2237  134.9537  155.2188 C.3     1  UNL1        0.0240
     38 C         143.7153  133.8079  156.0527 C.3     1  UNL1        0.0018
     39 C         142.9629  133.5424  154.7825 C.3     1  UNL1        0.0018
     40 C         140.9742  144.9627  159.3214 C.3     1  UNL1        0.2272
     41 C         142.0870  145.9008  157.1692 C.3     1  UNL1        0.1748
     42 O         142.1195  145.6605  158.6496 O.3     1  UNL1       -0.3417
@<TRIPOS>BOND
     1    41    42    1
     2    42    40    1
     3    40     1    1
     4     1     2    2
     5     1     3   am
     6     3     4    1
     7     4     5    1
     8     5     6   ar
     9     6     7   ar
    10     7    33    1
    11    33    34    2
    12    33    35    2
    13    33    36    1
    14    36    37    1
    15    37    38    1
    16    38    39    1
    17     7     8   ar
    18     8     9   ar
    19     9    10   ar
    20    10    11    1
    21    11    12    1
    22    12    13    2
    23    12    14   am
    24    14    16    1
    25    16    17   ar
    26    17    18   ar
    27    18    19   ar
    28    19    22    1
    29    22    23    1
    30    22    25    1
    31    25    26    1
    32    25    27    1
    33    25    28    1
    34    22    29    1
    35    29    30    1
    36    29    31    1
    37    29    32    1
    38    19    20   ar
    39    20    21   ar
    40    11     3    1
    41    21    16   ar
    42    10     5   ar
    43    39    37    1
    44    14    15    1
    45    23    24    1
@<TRIPOS>MOLECULE
*****
 42 45 0 0 0
SMALL
GASTEIGER

@<TRIPOS>ATOM
      1 C         140.2032  138.5053  156.1503 C.2     1  UNL1        0.2566
      2 O         140.4704  139.6492  157.0830 O.2     1  UNL1       -0.2721
      3 N         141.0237  137.2531  156.2448 N.am    1  UNL1       -0.2634
      4 C         140.8731  136.0334  155.3849 C.3     1  UNL1        0.1207
      5 C         141.8952  135.0273  155.8245 C.ar    1  UNL1       -0.0030
      6 C         142.2146  133.6439  155.3406 C.ar    1  UNL1        0.0155
      7 C         143.3162  132.8585  155.9882 C.ar    1  UNL1        0.1054
      8 C         144.0984  133.4565  157.1199 C.ar    1  UNL1        0.0181
      9 C         143.7790  134.8399  157.6038 C.ar    1  UNL1       -0.0011
     10 C         142.6774  135.6252  156.9561 C.ar    1  UNL1        0.0022
     11 C         142.1388  137.0009  157.2159 C.3     1  UNL1        0.1751
     12 C         142.6292  137.9565  158.2629 C.2     1  UNL1        0.2485
     13 O         143.7512  138.9013  157.9496 O.2     1  UNL1       -0.2726
     14 N         141.9975  137.9673  159.6234 N.am    1  UNL1       -0.2823
     15 H         141.2610  137.3472  159.8292 H       1  UNL1        0.1549
     16 C         142.4879  138.9230  160.6705 C.ar    1  UNL1        0.0503
     17 C         141.8171  140.2532  160.8450 C.ar    1  UNL1        0.0144
     18 C         142.3075  141.2089  161.8920 C.ar    1  UNL1       -0.0002
     19 C         143.4687  140.8342  162.7645 C.ar    1  UNL1        0.0182
     20 C         144.1394  139.5039  162.5900 C.ar    1  UNL1       -0.0002
     21 C         143.6490  138.5483  161.5429 C.ar    1  UNL1        0.0144
     22 C         143.9592  141.7898  163.8116 C.3     1  UNL1        0.2827
     23 O         143.5354  140.8314  164.8848 O.3     1  UNL1       -0.3692
     24 H         143.7431  141.2074  165.7545 H       1  UNL1        0.2112
     25 C         144.4497  142.7454  164.8585 C.3     1  UNL1        0.4311
     26 F         144.9402  143.7010  165.9055 F       1  UNL1       -0.1669
     27 F         143.0351  143.0036  165.2856 F       1  UNL1       -0.1669
     28 F         145.3140  142.6629  164.6837 F       1  UNL1       -0.1669
     29 C         144.3830  142.7481  162.7383 C.3     1  UNL1        0.4311
     30 F         144.8067  143.7066  161.6650 F       1  UNL1       -0.1669
     31 F         143.7750  143.3708  162.9034 F       1  UNL1       -0.1669
     32 F         145.5424  142.0635  162.0773 F       1  UNL1       -0.1669
     33 S         143.6357  131.4751  155.5043 S.O2    1  UNL1        0.0086
     34 O         142.1924  131.2642  155.1543 O.2     1  UNL1       -0.1686
     35 O         145.0789  131.6860  155.8543 O.2     1  UNL1       -0.1686
     36 C         143.9552  130.0917  155.0204 C.3     1  UNL1        0.1559
     37 C         144.1672  129.8393  153.5571 C.3     1  UNL1        0.0240
     38 C         143.8777  130.1788  152.1250 C.3     1  UNL1        0.0018
     39 C         144.8241  129.0627  152.4546 C.3     1  UNL1        0.0018
     40 C         139.1156  138.6135  155.1230 C.3     1  UNL1        0.2272
     41 C         136.7925  137.8800  154.2200 C.3     1  UNL1        0.1748
     42 O         137.8874  137.7602  155.2383 O.3     1  UNL1       -0.3417
@<TRIPOS>BOND
     1    41    42    1
     2    42    40    1
     3    40     1    1
     4     1     2    2
     5     1     3   am
     6     3     4    1
     7     4     5    1
     8     5     6   ar
     9     6     7   ar
    10     7    33    1
    11    33    34    2
    12    33    35    2
    13    33    36    1
    14    36    37    1
    15    37    38    1
    16    38    39    1
    17     7     8   ar
    18     8     9   ar
    19     9    10   ar
    20    10    11    1
    21    11    12    1
    22    12    13    2
    23    12    14   am
    24    14    16    1
    25    16    17   ar
    26    17    18   ar
    27    18    19   ar
    28    19    22    1
    29    22    23    1
    30    22    25    1
    31    25    26    1
    32    25    27    1
    33    25    28    1
    34    22    29    1
    35    29    30    1
    36    29    31    1
    37    29    32    1
    38    19    20   ar
    39    20    21   ar
    40    11     3    1
    41    21    16   ar
    42    10     5   ar
    43    39    37    1
    44    14    15    1
    45    23    24    1
@<TRIPOS>MOLECULE
*****
 42 45 0 0 0
SMALL
GASTEIGER

@<TRIPOS>ATOM
      1 C         140.2656  137.9252  156.1973 C.2     1  UNL1        0.2566
      2 O         139.5815  137.6157  157.4958 O.2     1  UNL1       -0.2721
      3 N         141.5210  138.7460  156.1880 N.am    1  UNL1       -0.2634
      4 C         142.3117  139.1342  154.9738 C.3     1  UNL1        0.1207
      5 C         143.4855  139.9509  155.4266 C.ar    1  UNL1       -0.0030
      6 C         144.6053  140.6035  154.6715 C.ar    1  UNL1        0.0155
      7 C         145.6600  141.3726  155.4104 C.ar    1  UNL1        0.1054
      8 C         145.5949  141.4891  156.9045 C.ar    1  UNL1        0.0181
      9 C         144.4751  140.8365  157.6596 C.ar    1  UNL1       -0.0011
     10 C         143.4204  140.0674  156.9206 C.ar    1  UNL1        0.0022
     11 C         142.2063  139.3228  157.3912 C.3     1  UNL1        0.1751
     12 C         141.7565  139.1800  158.8150 C.2     1  UNL1        0.2485
     13 O         142.6385  138.4930  159.8149 O.2     1  UNL1       -0.2726
     14 N         140.4244  139.7242  159.2389 N.am    1  UNL1       -0.2823
     15 H         139.8455  140.1751  158.5826 H       1  UNL1        0.1549
     16 C         139.9746  139.5814  160.6627 C.ar    1  UNL1        0.0503
     17 C         139.0743  138.4474  161.0547 C.ar    1  UNL1        0.0144
     18 C         138.6245  138.3046  162.4785 C.ar    1  UNL1       -0.0002
     19 C         139.0750  139.2958  163.5103 C.ar    1  UNL1        0.0182
     20 C         139.9752  140.4298  163.1183 C.ar    1  UNL1       -0.0002
     21 C         140.4250  140.5726  161.6945 C.ar    1  UNL1        0.0144
     22 C         138.6251  139.1531  164.9341 C.3     1  UNL1        0.2827
     23 O         137.7884  140.3901  164.7939 O.3     1  UNL1       -0.3692
     24 H         137.3338  140.5697  165.6318 H       1  UNL1        0.2112
     25 C         138.1754  139.0103  166.3580 C.3     1  UNL1        0.4311
     26 F         137.7257  138.8675  167.7819 F       1  UNL1       -0.1669
     27 F         139.4314  139.6862  166.8225 F       1  UNL1       -0.1669
     28 F         137.4069  138.6039  166.1883 F       1  UNL1       -0.1669
     29 C         139.4619  137.9161  165.0744 C.3     1  UNL1        0.4311
     30 F         140.2986  136.6790  165.2146 F       1  UNL1       -0.1669
     31 F         138.7927  137.3377  165.1205 F       1  UNL1       -0.1669
     32 F         140.8721  138.4268  165.0487 F       1  UNL1       -0.1669
     33 S         146.7798  142.0252  154.6553 S.O2    1  UNL1        0.0086
     34 O         147.1231  142.8390  155.8677 O.2     1  UNL1       -0.1686
     35 O         146.4365  141.2115  153.4430 O.2     1  UNL1       -0.1686
     36 C         147.8996  142.6778  153.9003 C.3     1  UNL1        0.1559
     37 C         149.3159  142.2423  154.1343 C.3     1  UNL1        0.0240
     38 C         150.7726  142.3179  153.7850 C.3     1  UNL1        0.0018
     39 C         150.3120  141.4126  154.8888 C.3     1  UNL1        0.0018
     40 C         139.6942  137.4138  154.9081 C.3     1  UNL1        0.2272
     41 C         141.1169  135.2457  155.0675 C.3     1  UNL1        0.1748
     42 O         140.2769  136.1920  154.2619 O.3     1  UNL1       -0.3417
@<TRIPOS>BOND
     1    41    42    1
     2    42    40    1
     3    40     1    1
     4     1     2    2
     5     1     3   am
     6     3     4    1
     7     4     5    1
     8     5     6   ar
     9     6     7   ar
    10     7    33    1
    11    33    34    2
    12    33    35    2
    13    33    36    1
    14    36    37    1
    15    37    38    1
    16    38    39    1
    17     7     8   ar
    18     8     9   ar
    19     9    10   ar
    20    10    11    1
    21    11    12    1
    22    12    13    2
    23    12    14   am
    24    14    16    1
    25    16    17   ar
    26    17    18   ar
    27    18    19   ar
    28    19    22    1
    29    22    23    1
    30    22    25    1
    31    25    26    1
    32    25    27    1
    33    25    28    1
    34    22    29    1
    35    29    30    1
    36    29    31    1
    37    29    32    1
    38    19    20   ar
    39    20    21   ar
    40    11     3    1
    41    21    16   ar
    42    10     5   ar
    43    39    37    1
    44    14    15    1
    45    23    24    1
@<TRIPOS>MOLECULE
*****
 42 45 0 0 0
SMALL
GASTEIGER

@<TRIPOS>ATOM
      1 C         143.8456  141.2015  159.2577 C.2     1  UNL1        0.2566
      2 O         144.1402  140.9006  160.6973 O.2     1  UNL1       -0.2721
      3 N         142.9749  142.3689  158.8984 N.am    1  UNL1       -0.2634
      4 C         142.5946  142.7909  157.5101 C.3     1  UNL1        0.1207
      5 C         141.7164  144.0021  157.6180 C.ar    1  UNL1       -0.0030
      6 C         141.0437  144.8498  156.5793 C.ar    1  UNL1        0.0155
      7 C         140.2085  146.0241  156.9957 C.ar    1  UNL1        0.1054
      8 C         140.0460  146.3508  158.4506 C.ar    1  UNL1        0.0181
      9 C         140.7187  145.5031  159.4893 C.ar    1  UNL1       -0.0011
     10 C         141.5539  144.3287  159.0729 C.ar    1  UNL1        0.0022
     11 C         142.3318  143.3194  159.8642 C.3     1  UNL1        0.1751
     12 C         142.4463  143.2693  161.3590 C.2     1  UNL1        0.2485
     13 O         143.2681  144.2940  162.0831 O.2     1  UNL1       -0.2726
     14 N         141.7388  142.1942  162.1298 N.am    1  UNL1       -0.2823
     15 H         141.1994  141.5216  161.6546 H       1  UNL1        0.1549
     16 C         141.8533  142.1442  163.6246 C.ar    1  UNL1        0.0503
     17 C         142.9575  141.3573  164.2663 C.ar    1  UNL1        0.0144
     18 C         143.0720  141.3072  165.7611 C.ar    1  UNL1       -0.0002
     19 C         142.0823  142.0440  166.6141 C.ar    1  UNL1        0.0182
     20 C         140.9782  142.8308  165.9724 C.ar    1  UNL1       -0.0002
     21 C         140.8637  142.8809  164.4776 C.ar    1  UNL1        0.0144
     22 C         142.1968  141.9939  168.1089 C.3     1  UNL1        0.2827
     23 O         143.5396  142.6576  168.0285 O.3     1  UNL1       -0.3692
     24 H         143.8987  142.7701  168.9225 H       1  UNL1        0.2112
     25 C         142.3111  141.9439  169.6037 C.3     1  UNL1        0.4311
     26 F         142.4254  141.8938  171.0985 F       1  UNL1       -0.1669
     27 F         142.1767  143.4366  169.6640 F       1  UNL1       -0.1669
     28 F         142.3981  141.0654  169.6761 F       1  UNL1       -0.1669
     29 C         140.8539  141.3303  168.1894 C.3     1  UNL1        0.4311
     30 F         139.5111  140.6666  168.2699 F       1  UNL1       -0.1669
     31 F         141.0891  140.5646  167.8113 F       1  UNL1       -0.1669
     32 F         139.9797  142.3583  168.8444 F       1  UNL1       -0.1669
     33 S         139.5357  146.8719  155.9570 S.O2    1  UNL1        0.0086
     34 O         138.9772  147.7511  157.0363 O.2     1  UNL1       -0.1686
     35 O         140.0942  145.9927  154.8777 O.2     1  UNL1       -0.1686
     36 C         138.8630  147.7196  154.9184 C.3     1  UNL1        0.1559
     37 C         139.6815  148.6137  154.0348 C.3     1  UNL1        0.0240
     38 C         140.4402  148.8394  152.7607 C.3     1  UNL1        0.0018
     39 C         140.3404  149.9366  153.7785 C.3     1  UNL1        0.0018
     40 C         144.4216  140.3349  158.1773 C.3     1  UNL1        0.2272
     41 C         142.2972  138.8407  158.1099 C.3     1  UNL1        0.1748
     42 O         143.7555  139.0392  157.8202 O.3     1  UNL1       -0.3417
@<TRIPOS>BOND
     1    41    42    1
     2    42    40    1
     3    40     1    1
     4     1     2    2
     5     1     3   am
     6     3     4    1
     7     4     5    1
     8     5     6   ar
     9     6     7   ar
    10     7    33    1
    11    33    34    2
    12    33    35    2
    13    33    36    1
    14    36    37    1
    15    37    38    1
    16    38    39    1
    17     7     8   ar
    18     8     9   ar
    19     9    10   ar
    20    10    11    1
    21    11    12    1
    22    12    13    2
    23    12    14   am
    24    14    16    1
    25    16    17   ar
    26    17    18   ar
    27    18    19   ar
    28    19    22    1
    29    22    23    1
    30    22    25    1
    31    25    26    1
    32    25    27    1
    33    25    28    1
    34    22    29    1
    35    29    30    1
    36    29    31    1
    37    29    32    1
    38    19    20   ar
    39    20    21   ar
    40    11     3    1
    41    21    16   ar
    42    10     5   ar
    43    39    37    1
    44    14    15    1
    45    23    24    1
@<TRIPOS>MOLECULE
*****
 42 45 0 0 0
SMALL
GASTEIGER

@<TRIPOS>ATOM
      1 C         136.9921  141.1405  157.0668 C.2     1  UNL1        0.2566
      2 O         137.5334  140.2120  158.1131 O.2     1  UNL1       -0.2721
      3 N         137.7367  142.3958  156.7204 N.am    1  UNL1       -0.2634
      4 C         137.3209  143.4147  155.7011 C.3     1  UNL1        0.1207
      5 C         138.3550  144.5012  155.6832 C.ar    1  UNL1       -0.0030
      6 C         138.4723  145.7620  154.8791 C.ar    1  UNL1        0.0155
      7 C         139.6445  146.6752  155.0831 C.ar    1  UNL1        0.1054
      8 C         140.6995  146.3277  156.0913 C.ar    1  UNL1        0.0181
      9 C         140.5822  145.0670  156.8954 C.ar    1  UNL1       -0.0011
     10 C         139.4099  144.1537  156.6913 C.ar    1  UNL1        0.0022
     11 C         139.0278  142.8525  157.3323 C.3     1  UNL1        0.1751
     12 C         139.8010  142.1341  158.3982 C.2     1  UNL1        0.2485
     13 O         141.0578  141.3959  158.0444 O.2     1  UNL1       -0.2726
     14 N         139.3174  142.1540  159.8180 N.am    1  UNL1       -0.2823
     15 H         138.4924  142.6386  160.0503 H       1  UNL1        0.1549
     16 C         140.0906  141.4356  160.8839 C.ar    1  UNL1        0.0503
     17 C         139.8788  139.9670  161.1031 C.ar    1  UNL1        0.0144
     18 C         140.6521  139.2486  162.1690 C.ar    1  UNL1       -0.0002
     19 C         141.6371  139.9990  163.0155 C.ar    1  UNL1        0.0182
     20 C         141.8488  141.4677  162.7963 C.ar    1  UNL1       -0.0002
     21 C         141.0756  142.1860  161.7304 C.ar    1  UNL1        0.0144
     22 C         142.4104  139.2807  164.0814 C.3     1  UNL1        0.2827
     23 O         141.6300  140.0067  165.1369 O.3     1  UNL1       -0.3692
     24 H         141.9333  139.7252  166.0142 H       1  UNL1        0.2112
     25 C         143.1837  138.5624  165.1472 C.3     1  UNL1        0.4311
     26 F         143.9571  137.8440  166.2131 F       1  UNL1       -0.1669
     27 F         141.9846  137.7113  165.4437 F       1  UNL1       -0.1669
     28 F         143.9422  139.0094  165.0503 F       1  UNL1       -0.1669
     29 C         143.1907  138.5547  163.0259 C.3     1  UNL1        0.4311
     30 F         143.9710  137.8286  161.9704 F       1  UNL1       -0.1669
     31 F         142.7524  137.7867  163.0767 F       1  UNL1       -0.1669
     32 F         144.1982  139.5639  162.5607 F       1  UNL1       -0.1669
     33 S         139.7619  147.9361  154.2790 S.O2    1  UNL1        0.0086
     34 O         138.8062  148.6197  155.2113 O.2     1  UNL1       -0.1686
     35 O         140.7176  147.2525  153.3467 O.2     1  UNL1       -0.1686
     36 C         139.8793  149.1969  153.4749 C.3     1  UNL1        0.1559
     37 C         140.3444  150.4637  154.1300 C.3     1  UNL1        0.0240
     38 C         141.4564  151.3906  154.5225 C.3     1  UNL1        0.0018
     39 C         140.0379  151.7308  154.8719 C.3     1  UNL1        0.0018
     40 C         135.7063  140.8139  156.3670 C.3     1  UNL1        0.2272
     41 C         133.5103  139.4297  156.2574 C.3     1  UNL1        0.1748
     42 O         134.6950  139.9273  157.0313 O.3     1  UNL1       -0.3417
@<TRIPOS>BOND
     1    41    42    1
     2    42    40    1
     3    40     1    1
     4     1     2    2
     5     1     3   am
     6     3     4    1
     7     4     5    1
     8     5     6   ar
     9     6     7   ar
    10     7    33    1
    11    33    34    2
    12    33    35    2
    13    33    36    1
    14    36    37    1
    15    37    38    1
    16    38    39    1
    17     7     8   ar
    18     8     9   ar
    19     9    10   ar
    20    10    11    1
    21    11    12    1
    22    12    13    2
    23    12    14   am
    24    14    16    1
    25    16    17   ar
    26    17    18   ar
    27    18    19   ar
    28    19    22    1
    29    22    23    1
    30    22    25    1
    31    25    26    1
    32    25    27    1
    33    25    28    1
    34    22    29    1
    35    29    30    1
    36    29    31    1
    37    29    32    1
    38    19    20   ar
    39    20    21   ar
    40    11     3    1
    41    21    16   ar
    42    10     5   ar
    43    39    37    1
    44    14    15    1
    45    23    24    1
@<TRIPOS>MOLECULE
*****
 42 45 0 0 0
SMALL
GASTEIGER

@<TRIPOS>ATOM
      1 C         140.0405  138.5687  156.0923 C.2     1  UNL1        0.2566
      2 O         140.3116  139.6979  157.0417 O.2     1  UNL1       -0.2721
      3 N         140.8908  137.3337  156.1335 N.am    1  UNL1       -0.2634
      4 C         140.7403  136.1297  155.2516 C.3     1  UNL1        0.1207
      5 C         141.7974  135.1377  155.6369 C.ar    1  UNL1       -0.0030
      6 C         142.1318  133.7727  155.1126 C.ar    1  UNL1        0.0155
      7 C         143.2701  132.9987  155.7083 C.ar    1  UNL1        0.1054
      8 C         144.0741  133.5896  156.8283 C.ar    1  UNL1        0.0181
      9 C         143.7397  134.9545  157.3527 C.ar    1  UNL1       -0.0011
     10 C         142.6013  135.7286  156.7570 C.ar    1  UNL1        0.0022
     11 C         142.0411  137.0858  157.0639 C.3     1  UNL1        0.1751
     12 C         142.5429  138.0294  158.1164 C.2     1  UNL1        0.2485
     13 O         143.6817  138.9566  157.8110 O.2     1  UNL1       -0.2726
     14 N         141.9059  138.0458  159.4744 N.am    1  UNL1       -0.2823
     15 H         141.1584  137.4372  159.6748 H       1  UNL1        0.1549
     16 C         142.4077  138.9894  160.5269 C.ar    1  UNL1        0.0503
     17 C         143.5908  138.6133  161.3688 C.ar    1  UNL1        0.0144
     18 C         144.0927  139.5569  162.4213 C.ar    1  UNL1       -0.0002
     19 C         143.4114  140.8765  162.6318 C.ar    1  UNL1        0.0182
     20 C         142.2283  141.2526  161.7899 C.ar    1  UNL1       -0.0002
     21 C         141.7265  140.3090  160.7374 C.ar    1  UNL1        0.0144
     22 C         143.9132  141.8202  163.6843 C.3     1  UNL1        0.2827
     23 O         144.2667  142.8179  162.6214 O.3     1  UNL1       -0.3692
     24 H         144.6489  143.6082  163.0340 H       1  UNL1        0.2112
     25 C         144.4150  142.7638  164.7368 C.3     1  UNL1        0.4311
     26 F         144.9168  143.7074  165.7894 F       1  UNL1       -0.1669
     27 F         145.8277  142.4683  164.3283 F       1  UNL1       -0.1669
     28 F         143.6232  143.0050  165.0521 F       1  UNL1       -0.1669
     29 C         143.5597  140.8226  164.7472 C.3     1  UNL1        0.4311
     30 F         143.2063  139.8249  165.8101 F       1  UNL1       -0.1669
     31 F         144.3887  140.6041  164.9701 F       1  UNL1       -0.1669
     32 F         142.0598  140.8240  164.7621 F       1  UNL1       -0.1669
     33 S         143.6046  131.6336  155.1839 S.O2    1  UNL1        0.0086
     34 O         145.0154  131.7935  155.6675 O.2     1  UNL1       -0.1686
     35 O         142.1937  131.4737  154.7004 O.2     1  UNL1       -0.1686
     36 C         143.9390  130.2686  154.6596 C.3     1  UNL1        0.1559
     37 C         144.4127  129.1996  155.5992 C.3     1  UNL1        0.0240
     38 C         144.4720  128.6168  156.9800 C.3     1  UNL1        0.0018
     39 C         145.1739  127.9308  155.8457 C.3     1  UNL1        0.0018
     40 C         138.9191  138.6745  155.1018 C.3     1  UNL1        0.2272
     41 C         136.7386  137.6388  154.1412 C.3     1  UNL1        0.1748
     42 O         137.6690  137.8684  155.2952 O.3     1  UNL1       -0.3417
@<TRIPOS>BOND
     1    41    42    1
     2    42    40    1
     3    40     1    1
     4     1     2    2
     5     1     3   am
     6     3     4    1
     7     4     5    1
     8     5     6   ar
     9     6     7   ar
    10     7    33    1
    11    33    34    2
    12    33    35    2
    13    33    36    1
    14    36    37    1
    15    37    38    1
    16    38    39    1
    17     7     8   ar
    18     8     9   ar
    19     9    10   ar
    20    10    11    1
    21    11    12    1
    22    12    13    2
    23    12    14   am
    24    14    16    1
    25    16    17   ar
    26    17    18   ar
    27    18    19   ar
    28    19    22    1
    29    22    23    1
    30    22    25    1
    31    25    26    1
    32    25    27    1
    33    25    28    1
    34    22    29    1
    35    29    30    1
    36    29    31    1
    37    29    32    1
    38    19    20   ar
    39    20    21   ar
    40    11     3    1
    41    21    16   ar
    42    10     5   ar
    43    39    37    1
    44    14    15    1
    45    23    24    1
@<TRIPOS>MOLECULE
*****
 42 45 0 0 0
SMALL
GASTEIGER

@<TRIPOS>ATOM
      1 C         142.1832  137.9263  156.9966 C.2     1  UNL1        0.2566
      2 O         141.6733  137.7999  158.4016 O.2     1  UNL1       -0.2721
      3 N         143.2281  138.9509  156.6673 N.am    1  UNL1       -0.2634
      4 C         143.8306  139.1927  155.3151 C.3     1  UNL1        0.1207
      5 C         144.8289  140.3047  155.4445 C.ar    1  UNL1       -0.0030
      6 C         145.7266  140.9692  154.4433 C.ar    1  UNL1        0.0155
      7 C         146.6388  142.0792  154.8743 C.ar    1  UNL1        0.1054
      8 C         146.6534  142.5247  156.3065 C.ar    1  UNL1        0.0181
      9 C         145.7557  141.8602  157.3078 C.ar    1  UNL1       -0.0011
     10 C         144.8435  140.7502  156.8768 C.ar    1  UNL1        0.0022
     11 C         143.8541  139.9135  157.6325 C.3     1  UNL1        0.1751
     12 C         143.5450  140.0206  159.0964 C.2     1  UNL1        0.2485
     13 O         142.7087  141.1570  159.6052 O.2     1  UNL1       -0.2726
     14 N         144.0724  138.9911  160.0516 N.am    1  UNL1       -0.2823
     15 H         144.6213  138.2452  159.7177 H       1  UNL1        0.1549
     16 C         143.7633  139.0982  161.5155 C.ar    1  UNL1        0.0503
     17 C         144.4858  140.1030  162.3630 C.ar    1  UNL1        0.0144
     18 C         144.1768  140.2101  163.8269 C.ar    1  UNL1       -0.0002
     19 C         143.1452  139.3124  164.4432 C.ar    1  UNL1        0.0182
     20 C         142.4226  138.3076  163.5957 C.ar    1  UNL1       -0.0002
     21 C         142.7317  138.2005  162.1318 C.ar    1  UNL1        0.0144
     22 C         142.8360  139.4194  165.9071 C.3     1  UNL1        0.2827
     23 O         143.3233  138.0157  166.1128 O.3     1  UNL1       -0.3692
     24 H         143.2399  137.7785  167.0496 H       1  UNL1        0.2112
     25 C         142.5268  139.5265  167.3710 C.3     1  UNL1        0.4311
     26 F         142.2177  139.6336  168.8349 F       1  UNL1       -0.1669
     27 F         141.0593  139.4738  167.0649 F       1  UNL1       -0.1669
     28 F         143.3646  139.5652  167.6558 F       1  UNL1       -0.1669
     29 C         142.3487  140.8231  165.7015 C.3     1  UNL1        0.4311
     30 F         141.8613  142.2267  165.4958 F       1  UNL1       -0.1669
     31 F         141.6377  140.6201  165.2137 F       1  UNL1       -0.1669
     32 F         143.3496  141.6660  166.4348 F       1  UNL1       -0.1669
     33 S         147.5366  142.7437  153.8730 S.O2    1  UNL1        0.0086
     34 O         147.7382  141.4284  153.1807 O.2     1  UNL1       -0.1686
     35 O         147.3349  144.0591  154.5652 O.2     1  UNL1       -0.1686
     36 C         148.4343  143.4083  152.8718 C.3     1  UNL1        0.1559
     37 C         149.9238  143.3222  153.0265 C.3     1  UNL1        0.0240
     38 C         151.1651  142.5012  153.2138 C.3     1  UNL1        0.0018
     39 C         151.2625  143.9942  153.1072 C.3     1  UNL1        0.0018
     40 C         141.6481  137.0283  155.9209 C.3     1  UNL1        0.2272
     41 C         143.2267  135.1179  156.7010 C.3     1  UNL1        0.1748
     42 O         142.0811  135.5936  155.8574 O.3     1  UNL1       -0.3417
@<TRIPOS>BOND
     1    41    42    1
     2    42    40    1
     3    40     1    1
     4     1     2    2
     5     1     3   am
     6     3     4    1
     7     4     5    1
     8     5     6   ar
     9     6     7   ar
    10     7    33    1
    11    33    34    2
    12    33    35    2
    13    33    36    1
    14    36    37    1
    15    37    38    1
    16    38    39    1
    17     7     8   ar
    18     8     9   ar
    19     9    10   ar
    20    10    11    1
    21    11    12    1
    22    12    13    2
    23    12    14   am
    24    14    16    1
    25    16    17   ar
    26    17    18   ar
    27    18    19   ar
    28    19    22    1
    29    22    23    1
    30    22    25    1
    31    25    26    1
    32    25    27    1
    33    25    28    1
    34    22    29    1
    35    29    30    1
    36    29    31    1
    37    29    32    1
    38    19    20   ar
    39    20    21   ar
    40    11     3    1
    41    21    16   ar
    42    10     5   ar
    43    39    37    1
    44    14    15    1
    45    23    24    1
@<TRIPOS>MOLECULE
*****
 42 45 0 0 0
SMALL
GASTEIGER

@<TRIPOS>ATOM
      1 C         145.2492  141.7977  157.2433 C.2     1  UNL1        0.2566
      2 O         144.8405  142.6433  158.4128 O.2     1  UNL1       -0.2721
      3 N         144.5227  140.5180  156.9527 N.am    1  UNL1       -0.2634
      4 C         144.8168  139.5736  155.8251 C.3     1  UNL1        0.1207
      5 C         143.8503  138.4299  155.9143 C.ar    1  UNL1       -0.0030
      6 C         143.6669  137.2028  155.0713 C.ar    1  UNL1        0.0155
      7 C         142.5920  136.2134  155.4111 C.ar    1  UNL1        0.1054
      8 C         141.7005  136.4509  156.5939 C.ar    1  UNL1        0.0181
      9 C         141.8840  137.6780  157.4368 C.ar    1  UNL1       -0.0011
     10 C         142.9589  138.6674  157.0970 C.ar    1  UNL1        0.0022
     11 C         143.3745  139.9580  157.7388 C.3     1  UNL1        0.1751
     12 C         142.7512  140.5793  158.9535 C.2     1  UNL1        0.2485
     13 O         143.1374  140.1021  160.3220 O.2     1  UNL1       -0.2726
     14 N         141.7416  141.6781  158.7996 N.am    1  UNL1       -0.2823
     15 H         141.4880  141.9913  157.9013 H       1  UNL1        0.1549
     16 C         141.1183  142.2994  160.0142 C.ar    1  UNL1        0.0503
     17 C         141.6325  143.6091  160.5343 C.ar    1  UNL1        0.0144
     18 C         141.0092  144.2304  161.7490 C.ar    1  UNL1       -0.0002
     19 C         139.8717  143.5422  162.4435 C.ar    1  UNL1        0.0182
     20 C         139.3575  142.2326  161.9234 C.ar    1  UNL1       -0.0002
     21 C         139.9808  141.6112  160.7087 C.ar    1  UNL1        0.0144
     22 C         139.2483  144.1635  163.6582 C.3     1  UNL1        0.2827
     23 O         138.0750  144.6010  162.8324 O.3     1  UNL1       -0.3692
     24 H         137.4421  145.0741  163.3950 H       1  UNL1        0.2112
     25 C         138.6251  144.7848  164.8729 C.3     1  UNL1        0.4311
     26 F         138.0018  145.4061  166.0876 F       1  UNL1       -0.1669
     27 F         137.5208  143.7707  164.8249 F       1  UNL1       -0.1669
     28 F         139.2274  145.4238  164.9885 F       1  UNL1       -0.1669
     29 C         140.4216  143.7259  164.4840 C.3     1  UNL1        0.4311
     30 F         141.5949  143.2883  165.3098 F       1  UNL1       -0.1669
     31 F         140.0836  142.9516  164.7501 F       1  UNL1       -0.1669
     32 F         141.4049  144.8497  164.3418 F       1  UNL1       -0.1669
     33 S         142.4084  134.9862  154.5681 S.O2    1  UNL1        0.0086
     34 O         141.2195  135.6181  153.9070 O.2     1  UNL1       -0.1686
     35 O         143.5973  134.3543  155.2292 O.2     1  UNL1       -0.1686
     36 C         142.2249  133.7592  153.7252 C.3     1  UNL1        0.1559
     37 C         141.7066  132.4948  154.3439 C.3     1  UNL1        0.0240
     38 C         140.6667  131.4163  154.4182 C.3     1  UNL1        0.0018
     39 C         141.8486  131.3834  155.3412 C.3     1  UNL1        0.0018
     40 C         146.3845  142.2319  156.3642 C.3     1  UNL1        0.2272
     41 C         146.9050  142.3606  153.8221 C.3     1  UNL1        0.1748
     42 O         146.1048  142.8099  155.0086 O.3     1  UNL1       -0.3417
@<TRIPOS>BOND
     1    41    42    1
     2    42    40    1
     3    40     1    1
     4     1     2    2
     5     1     3   am
     6     3     4    1
     7     4     5    1
     8     5     6   ar
     9     6     7   ar
    10     7    33    1
    11    33    34    2
    12    33    35    2
    13    33    36    1
    14    36    37    1
    15    37    38    1
    16    38    39    1
    17     7     8   ar
    18     8     9   ar
    19     9    10   ar
    20    10    11    1
    21    11    12    1
    22    12    13    2
    23    12    14   am
    24    14    16    1
    25    16    17   ar
    26    17    18   ar
    27    18    19   ar
    28    19    22    1
    29    22    23    1
    30    22    25    1
    31    25    26    1
    32    25    27    1
    33    25    28    1
    34    22    29    1
    35    29    30    1
    36    29    31    1
    37    29    32    1
    38    19    20   ar
    39    20    21   ar
    40    11     3    1
    41    21    16   ar
    42    10     5   ar
    43    39    37    1
    44    14    15    1
    45    23    24    1
