@<TRIPOS>MOLECULE
*****
 49 53 0 0 0
SMALL
GASTEIGER

@<TRIPOS>ATOM
      1 N         142.7192  138.6535  162.8246 N.3     1  UNL1       -0.2726
      2 C         144.0004  138.5044  162.0590 C.3     1  UNL1        0.0738
      3 C         144.0082  138.6776  160.5690 C.3     1  UNL1        0.0376
      4 C         142.7349  138.9999  159.8447 C.3     1  UNL1        0.0840
      5 C         141.4537  139.1490  160.6103 C.3     1  UNL1        0.0376
      6 C         141.4458  138.9758  162.1003 C.3     1  UNL1        0.0738
      7 N         142.7427  139.1731  158.3547 N.am    1  UNL1       -0.2448
      8 C         143.3591  140.3973  157.7452 C.2     1  UNL1        0.3079
      9 O         143.9676  141.4482  158.6257 O.2     1  UNL1       -0.2522
     10 N         143.3670  140.5705  156.2553 N.am    1  UNL1       -0.2844
     11 H         142.9676  139.8807  155.6774 H       1  UNL1        0.1513
     12 C         142.1342  138.1221  157.4743 C.ar    1  UNL1        0.0574
     13 C         140.7226  138.2744  156.9902 C.ar    1  UNL1        0.0151
     14 C         140.1142  137.2234  156.1099 C.ar    1  UNL1        0.0036
     15 C         140.9172  136.0200  155.7136 C.ar    1  UNL1        0.0297
     16 C         142.3288  135.8677  156.1977 C.ar    1  UNL1        0.1414
     17 F         143.1319  134.6643  155.8014 F       1  UNL1       -0.2041
     18 C         142.9372  136.9187  157.0780 C.ar    1  UNL1        0.0446
     19 C         143.9834  141.7946  155.6458 C.3     1  UNL1        0.1177
     20 C         145.4590  141.8381  155.3796 C.ar    1  UNL1       -0.0025
     21 C         145.9864  141.4875  154.0199 C.ar    1  UNL1       -0.0019
     22 C         147.4620  141.5310  153.7537 C.ar    1  UNL1        0.0100
     23 C         148.4100  141.9250  154.8473 C.ar    1  UNL1        0.0684
     24 C         147.8826  142.2755  156.2071 C.ar    1  UNL1        0.0100
     25 C         146.4070  142.2321  156.4732 C.ar    1  UNL1       -0.0019
     26 C         149.8856  141.9684  154.5811 C.1     1  UNL1        0.1004
     27 N         151.3612  142.0119  154.3150 N.1     1  UNL1       -0.1908
     28 C         142.7113  138.4803  164.3145 C.3     1  UNL1        0.0724
     29 C         143.5624  139.3645  165.1769 C.3     1  UNL1        0.0215
     30 C         140.5558  141.5980  169.5144 C.2     1  UNL1        0.2497
     31 O         140.1672  143.0228  169.7769 O.2     1  UNL1       -0.2724
     32 N         141.3564  141.2516  168.2942 N.am    1  UNL1       -0.2777
     33 C         141.7450  139.8268  168.0317 C.3     1  UNL1        0.0938
     34 C         142.5457  139.4804  166.8114 C.3     1  UNL1        0.0256
     35 C         142.9577  140.5588  165.8537 C.3     1  UNL1        0.0236
     36 C         142.5691  141.9836  166.1162 C.3     1  UNL1        0.0256
     37 C         141.7685  142.3300  167.3364 C.3     1  UNL1        0.0938
     38 C         143.5798  141.2224  164.6609 C.ar    1  UNL1       -0.0204
     39 C         145.0530  141.0894  164.4120 C.ar    1  UNL1       -0.0041
     40 C         145.6750  141.7530  163.2192 C.ar    1  UNL1        0.0020
     41 C         144.8238  142.5496  162.2754 C.ar    1  UNL1        0.0296
     42 C         143.3506  142.6827  162.5243 C.ar    1  UNL1        0.1398
     43 F         142.4994  143.4793  161.5804 F       1  UNL1       -0.2042
     44 C         142.7286  142.0190  163.7170 C.ar    1  UNL1        0.0254
     45 C         138.8830  140.3052  169.6882 C.3     1  UNL1        0.0387
     46 C         140.1438  140.5196  170.4721 C.3     1  UNL1        0.1565
     47 C         141.4045  140.7341  171.2560 C.3     1  UNL1        0.0387
     48 O         139.7317  139.4412  171.4299 O.3     1  UNL1       -0.3781
     49 H         140.4115  139.3395  172.1143 H       1  UNL1        0.2109
@<TRIPOS>BOND
     1    45    46    1
     2    46    47    1
     3    46    48    1
     4    46    30    1
     5    30    31    2
     6    30    32   am
     7    32    33    1
     8    33    34    1
     9    34    35    1
    10    35    29    1
    11    29    28    1
    12    28     1    1
    13     1     2    1
    14     2     3    1
    15     3     4    1
    16     4     7    1
    17     7     8   am
    18     8     9    2
    19     8    10   am
    20    10    19    1
    21    19    20    1
    22    20    21   ar
    23    21    22   ar
    24    22    23   ar
    25    23    26    1
    26    26    27    3
    27    23    24   ar
    28    24    25   ar
    29     7    12    1
    30    12    13   ar
    31    13    14   ar
    32    14    15   ar
    33    15    16   ar
    34    16    17    1
    35    16    18   ar
    36     4     5    1
    37     5     6    1
    38    35    38    1
    39    38    39   ar
    40    39    40   ar
    41    40    41   ar
    42    41    42   ar
    43    42    43    1
    44    42    44   ar
    45    35    36    1
    46    36    37    1
    47    37    32    1
    48     6     1    1
    49    44    38   ar
    50    25    20   ar
    51    18    12   ar
    52    48    49    1
    53    10    11    1
@<TRIPOS>MOLECULE
*****
 49 53 0 0 0
SMALL
GASTEIGER

@<TRIPOS>ATOM
      1 N         141.8902  141.5903  162.7082 N.3     1  UNL1       -0.2726
      2 C         140.9176  142.0692  161.6716 C.3     1  UNL1        0.0738
      3 C         141.0473  141.6062  160.2507 C.3     1  UNL1        0.0376
      4 C         142.1497  140.6643  159.8665 C.3     1  UNL1        0.0840
      5 C         143.1223  140.1854  160.9031 C.3     1  UNL1        0.0376
      6 C         142.9925  140.6484  162.3240 C.3     1  UNL1        0.0738
      7 N         142.2794  140.2013  158.4456 N.am    1  UNL1       -0.2448
      8 C         141.5946  138.9429  158.0014 C.2     1  UNL1        0.3079
      9 O         140.7800  138.1475  158.9780 O.2     1  UNL1       -0.2522
     10 N         141.7243  138.4799  156.5805 N.am    1  UNL1       -0.2844
     11 H         142.2589  139.0020  155.9395 H       1  UNL1        0.1513
     12 C         143.0940  140.9968  157.4691 C.ar    1  UNL1        0.0574
     13 C         142.4604  142.1208  156.7040 C.ar    1  UNL1        0.0151
     14 C         143.2750  142.9162  155.7275 C.ar    1  UNL1        0.0036
     15 C         144.7233  142.5877  155.5160 C.ar    1  UNL1        0.0297
     16 C         145.3569  141.4637  156.2811 C.ar    1  UNL1        0.1414
     17 F         146.8051  141.1353  156.0696 F       1  UNL1       -0.2041
     18 C         144.5422  140.6683  157.2576 C.ar    1  UNL1        0.0446
     19 C         141.0394  137.2215  156.1363 C.3     1  UNL1        0.1177
     20 C         141.8121  135.9389  156.0460 C.ar    1  UNL1       -0.0025
     21 C         143.0180  135.7273  156.9126 C.ar    1  UNL1       -0.0019
     22 C         143.7907  134.4448  156.8223 C.ar    1  UNL1        0.0100
     23 C         143.3573  133.3739  155.8655 C.ar    1  UNL1        0.0684
     24 C         142.1514  133.5855  154.9990 C.ar    1  UNL1        0.0100
     25 C         141.3787  134.8681  155.0892 C.ar    1  UNL1       -0.0019
     26 C         144.1299  132.0913  155.7753 C.1     1  UNL1        0.1004
     27 N         144.9025  130.8088  155.6849 N.1     1  UNL1       -0.1908
     28 C         141.7605  142.0532  164.1290 C.3     1  UNL1        0.0724
     29 C         140.4016  142.2568  164.7305 C.3     1  UNL1        0.0215
     30 C         140.3698  140.6301  170.2255 C.2     1  UNL1        0.2497
     31 O         139.6266  139.5081  170.8881 O.2     1  UNL1       -0.2724
     32 N         140.2167  140.8639  168.7518 N.am    1  UNL1       -0.2777
     33 C         140.9598  141.9858  168.0893 C.3     1  UNL1        0.0938
     34 C         140.8067  142.2197  166.6155 C.3     1  UNL1        0.0256
     35 C         139.9105  141.3316  165.8043 C.3     1  UNL1        0.0236
     36 C         139.1674  140.2097  166.4669 C.3     1  UNL1        0.0256
     37 C         139.3204  139.9759  167.9406 C.3     1  UNL1        0.0938
     38 C         139.1848  140.7648  164.6202 C.ar    1  UNL1       -0.0204
     39 C         138.1679  141.5959  163.8955 C.ar    1  UNL1       -0.0041
     40 C         137.4422  141.0291  162.7114 C.ar    1  UNL1        0.0020
     41 C         137.7335  139.6312  162.2520 C.ar    1  UNL1        0.0296
     42 C         138.7503  138.8001  162.9767 C.ar    1  UNL1        0.1398
     43 F         139.0415  137.4022  162.5173 F       1  UNL1       -0.2042
     44 C         139.4760  139.3669  164.1608 C.ar    1  UNL1        0.0254
     45 C         142.3848  140.5313  170.8810 C.3     1  UNL1        0.0387
     46 C         141.2660  141.5181  171.0367 C.3     1  UNL1        0.1565
     47 C         140.1471  142.5050  171.1925 C.3     1  UNL1        0.0387
     48 O         142.1623  142.4062  171.8480 O.3     1  UNL1       -0.3781
     49 H         141.6734  143.1993  172.1178 H       1  UNL1        0.2109
@<TRIPOS>BOND
     1    45    46    1
     2    46    47    1
     3    46    48    1
     4    46    30    1
     5    30    31    2
     6    30    32   am
     7    32    33    1
     8    33    34    1
     9    34    35    1
    10    35    29    1
    11    29    28    1
    12    28     1    1
    13     1     2    1
    14     2     3    1
    15     3     4    1
    16     4     7    1
    17     7     8   am
    18     8     9    2
    19     8    10   am
    20    10    19    1
    21    19    20    1
    22    20    21   ar
    23    21    22   ar
    24    22    23   ar
    25    23    26    1
    26    26    27    3
    27    23    24   ar
    28    24    25   ar
    29     7    12    1
    30    12    13   ar
    31    13    14   ar
    32    14    15   ar
    33    15    16   ar
    34    16    17    1
    35    16    18   ar
    36     4     5    1
    37     5     6    1
    38    35    38    1
    39    38    39   ar
    40    39    40   ar
    41    40    41   ar
    42    41    42   ar
    43    42    43    1
    44    42    44   ar
    45    35    36    1
    46    36    37    1
    47    37    32    1
    48     6     1    1
    49    44    38   ar
    50    25    20   ar
    51    18    12   ar
    52    48    49    1
    53    10    11    1
@<TRIPOS>MOLECULE
*****
 49 53 0 0 0
SMALL
GASTEIGER

@<TRIPOS>ATOM
      1 N         143.0295  141.8569  162.7783 N.3     1  UNL1       -0.2726
      2 C         142.1063  142.5248  161.8029 C.3     1  UNL1        0.0738
      3 C         142.0254  142.0316  160.3885 C.3     1  UNL1        0.0376
      4 C         142.8675  140.8705  159.9498 C.3     1  UNL1        0.0840
      5 C         143.7907  140.2026  160.9252 C.3     1  UNL1        0.0376
      6 C         143.8716  140.6957  162.3396 C.3     1  UNL1        0.0738
      7 N         142.7865  140.3774  158.5354 N.am    1  UNL1       -0.2448
      8 C         141.9849  139.1511  158.2135 C.2     1  UNL1        0.3079
      9 O         141.2642  138.4180  159.3058 O.2     1  UNL1       -0.2522
     10 N         141.9039  138.6579  156.7992 N.am    1  UNL1       -0.2844
     11 H         142.3769  139.1391  156.0822 H       1  UNL1        0.1513
     12 C         143.5072  141.1105  157.4431 C.ar    1  UNL1        0.0574
     13 C         142.8158  142.2126  156.6966 C.ar    1  UNL1        0.0151
     14 C         143.5366  142.9457  155.6044 C.ar    1  UNL1        0.0036
     15 C         144.9488  142.5766  155.2586 C.ar    1  UNL1        0.0297
     16 C         145.6402  141.4746  156.0051 C.ar    1  UNL1        0.1414
     17 F         147.0525  141.1055  155.6594 F       1  UNL1       -0.2041
     18 C         144.9195  140.7415  157.0974 C.ar    1  UNL1        0.0446
     19 C         141.1022  137.4317  156.4772 C.3     1  UNL1        0.1177
     20 C         141.7952  136.1209  156.2498 C.ar    1  UNL1       -0.0025
     21 C         143.0564  135.8001  156.9957 C.ar    1  UNL1       -0.0019
     22 C         143.7494  134.4893  156.7683 C.ar    1  UNL1        0.0100
     23 C         143.1812  133.4995  155.7949 C.ar    1  UNL1        0.0684
     24 C         141.9201  133.8204  155.0489 C.ar    1  UNL1        0.0100
     25 C         141.2270  135.1312  155.2764 C.ar    1  UNL1       -0.0019
     26 C         143.8742  132.1888  155.5675 C.1     1  UNL1        0.1004
     27 N         144.5672  130.8781  155.3400 N.1     1  UNL1       -0.1908
     28 C         143.1105  142.3499  164.1926 C.3     1  UNL1        0.0724
     29 C         141.9506  143.0825  164.7992 C.3     1  UNL1        0.0215
     30 C         141.1785  140.1780  169.6787 C.2     1  UNL1        0.2497
     31 O         139.9194  139.6176  170.2708 O.2     1  UNL1       -0.2724
     32 N         141.1307  140.9110  168.3708 N.am    1  UNL1       -0.2777
     33 C         142.3897  141.4715  167.7787 C.3     1  UNL1        0.0938
     34 C         142.3419  142.2045  166.4709 C.3     1  UNL1        0.0256
     35 C         141.0350  142.3770  165.7552 C.3     1  UNL1        0.0236
     36 C         139.7760  141.8166  166.3473 C.3     1  UNL1        0.0256
     37 C         139.8238  141.0836  167.6551 C.3     1  UNL1        0.0938
     38 C         140.0461  142.7946  164.7074 C.ar    1  UNL1       -0.0204
     39 C         139.9048  144.2431  164.3443 C.ar    1  UNL1       -0.0041
     40 C         138.9159  144.6607  163.2966 C.ar    1  UNL1        0.0020
     41 C         138.0683  143.6297  162.6120 C.ar    1  UNL1        0.0296
     42 C         138.2096  142.1812  162.9751 C.ar    1  UNL1        0.1398
     43 F         137.3620  141.1502  162.2906 F       1  UNL1       -0.2042
     44 C         139.1985  141.7637  164.0229 C.ar    1  UNL1        0.0254
     45 C         142.6967  138.6966  169.6930 C.3     1  UNL1        0.0387
     46 C         142.4853  140.0055  170.3944 C.3     1  UNL1        0.1565
     47 C         142.2740  141.3144  171.0958 C.3     1  UNL1        0.0387
     48 O         143.7923  139.8329  171.1101 O.3     1  UNL1       -0.3781
     49 H         143.9452  140.5937  171.6921 H       1  UNL1        0.2109
@<TRIPOS>BOND
     1    45    46    1
     2    46    47    1
     3    46    48    1
     4    46    30    1
     5    30    31    2
     6    30    32   am
     7    32    33    1
     8    33    34    1
     9    34    35    1
    10    35    29    1
    11    29    28    1
    12    28     1    1
    13     1     2    1
    14     2     3    1
    15     3     4    1
    16     4     7    1
    17     7     8   am
    18     8     9    2
    19     8    10   am
    20    10    19    1
    21    19    20    1
    22    20    21   ar
    23    21    22   ar
    24    22    23   ar
    25    23    26    1
    26    26    27    3
    27    23    24   ar
    28    24    25   ar
    29     7    12    1
    30    12    13   ar
    31    13    14   ar
    32    14    15   ar
    33    15    16   ar
    34    16    17    1
    35    16    18   ar
    36     4     5    1
    37     5     6    1
    38    35    38    1
    39    38    39   ar
    40    39    40   ar
    41    40    41   ar
    42    41    42   ar
    43    42    43    1
    44    42    44   ar
    45    35    36    1
    46    36    37    1
    47    37    32    1
    48     6     1    1
    49    44    38   ar
    50    25    20   ar
    51    18    12   ar
    52    48    49    1
    53    10    11    1
@<TRIPOS>MOLECULE
*****
 49 53 0 0 0
SMALL
GASTEIGER

@<TRIPOS>ATOM
      1 N         142.0978  141.7822  162.7530 N.3     1  UNL1       -0.2726
      2 C         141.1128  142.2996  161.7471 C.3     1  UNL1        0.0738
      3 C         141.3211  142.0304  160.2862 C.3     1  UNL1        0.0376
      4 C         142.5145  141.2438  159.8313 C.3     1  UNL1        0.0840
      5 C         143.4996  140.7263  160.8372 C.3     1  UNL1        0.0376
      6 C         143.2912  140.9955  162.2981 C.3     1  UNL1        0.0738
      7 N         142.7229  140.9746  158.3704 N.am    1  UNL1       -0.2448
      8 C         143.4666  141.9647  157.5239 C.2     1  UNL1        0.3079
      9 O         144.0020  143.2240  158.1383 O.2     1  UNL1       -0.2522
     10 N         143.6749  141.6955  156.0630 N.am    1  UNL1       -0.2844
     11 H         143.3235  140.8690  155.6598 H       1  UNL1        0.1513
     12 C         142.1874  139.7153  157.7561 C.ar    1  UNL1        0.0574
     13 C         140.8118  139.6983  157.1584 C.ar    1  UNL1        0.0151
     14 C         140.2764  138.4390  156.5441 C.ar    1  UNL1        0.0036
     15 C         141.1167  137.1965  156.5275 C.ar    1  UNL1        0.0297
     16 C         142.4924  137.2135  157.1252 C.ar    1  UNL1        0.1414
     17 F         143.3327  135.9710  157.1086 F       1  UNL1       -0.2041
     18 C         143.0277  138.4728  157.7395 C.ar    1  UNL1        0.0446
     19 C         144.4186  142.6857  155.2166 C.3     1  UNL1        0.1177
     20 C         145.8939  142.5260  154.9970 C.ar    1  UNL1       -0.0025
     21 C         146.7675  142.0239  156.1082 C.ar    1  UNL1       -0.0019
     22 C         148.2427  141.8642  155.8886 C.ar    1  UNL1        0.0100
     23 C         148.8443  142.2067  154.5579 C.ar    1  UNL1        0.0684
     24 C         147.9707  142.7089  153.4467 C.ar    1  UNL1        0.0100
     25 C         146.4955  142.8685  153.6663 C.ar    1  UNL1       -0.0019
     26 C         150.3196  142.0471  154.3383 C.1     1  UNL1        0.1004
     27 N         151.7947  141.8875  154.1187 N.1     1  UNL1       -0.1908
     28 C         141.8896  142.0513  164.2139 C.3     1  UNL1        0.0724
     29 C         140.5030  142.2525  164.7493 C.3     1  UNL1        0.0215
     30 C         140.3268  140.6570  170.2507 C.2     1  UNL1        0.2497
     31 O         139.5487  139.5532  170.9034 O.2     1  UNL1       -0.2724
     32 N         140.2086  140.8856  168.7729 N.am    1  UNL1       -0.2777
     33 C         140.9867  141.9894  168.1202 C.3     1  UNL1        0.0938
     34 C         140.8685  142.2180  166.6424 C.3     1  UNL1        0.0256
     35 C         139.9721  141.3429  165.8174 C.3     1  UNL1        0.0236
     36 C         139.1940  140.2392  166.4702 C.3     1  UNL1        0.0256
     37 C         139.3122  140.0105  167.9480 C.3     1  UNL1        0.0938
     38 C         139.2600  140.7837  164.6215 C.ar    1  UNL1       -0.0204
     39 C         138.2287  141.6079  163.9095 C.ar    1  UNL1       -0.0041
     40 C         137.5166  141.0486  162.7135 C.ar    1  UNL1        0.0020
     41 C         137.8360  139.6652  162.2297 C.ar    1  UNL1        0.0296
     42 C         138.8674  138.8410  162.9417 C.ar    1  UNL1        0.1398
     43 F         139.1867  137.4576  162.4578 F       1  UNL1       -0.2042
     44 C         139.5794  139.4003  164.1376 C.ar    1  UNL1        0.0254
     45 C         140.1039  142.5155  171.2486 C.3     1  UNL1        0.0387
     46 C         141.2232  141.5321  171.0757 C.3     1  UNL1        0.1565
     47 C         142.3425  140.5486  170.9027 C.3     1  UNL1        0.0387
     48 O         142.1196  142.4073  171.9007 O.3     1  UNL1       -0.3781
     49 H         142.9952  141.9963  171.9731 H       1  UNL1        0.2109
@<TRIPOS>BOND
     1    45    46    1
     2    46    47    1
     3    46    48    1
     4    46    30    1
     5    30    31    2
     6    30    32   am
     7    32    33    1
     8    33    34    1
     9    34    35    1
    10    35    29    1
    11    29    28    1
    12    28     1    1
    13     1     2    1
    14     2     3    1
    15     3     4    1
    16     4     7    1
    17     7     8   am
    18     8     9    2
    19     8    10   am
    20    10    19    1
    21    19    20    1
    22    20    21   ar
    23    21    22   ar
    24    22    23   ar
    25    23    26    1
    26    26    27    3
    27    23    24   ar
    28    24    25   ar
    29     7    12    1
    30    12    13   ar
    31    13    14   ar
    32    14    15   ar
    33    15    16   ar
    34    16    17    1
    35    16    18   ar
    36     4     5    1
    37     5     6    1
    38    35    38    1
    39    38    39   ar
    40    39    40   ar
    41    40    41   ar
    42    41    42   ar
    43    42    43    1
    44    42    44   ar
    45    35    36    1
    46    36    37    1
    47    37    32    1
    48     6     1    1
    49    44    38   ar
    50    25    20   ar
    51    18    12   ar
    52    48    49    1
    53    10    11    1
@<TRIPOS>MOLECULE
*****
 49 53 0 0 0
SMALL
GASTEIGER

@<TRIPOS>ATOM
      1 N         142.6143  142.0627  162.8428 N.3     1  UNL1       -0.2726
      2 C         142.7581  143.1013  161.7702 C.3     1  UNL1        0.0738
      3 C         142.4688  142.7488  160.3412 C.3     1  UNL1        0.0376
      4 C         142.0357  141.3576  159.9848 C.3     1  UNL1        0.0840
      5 C         141.8919  140.3190  161.0574 C.3     1  UNL1        0.0376
      6 C         142.1812  140.6715  162.4864 C.3     1  UNL1        0.0738
      7 N         141.7464  141.0051  158.5557 N.am    1  UNL1       -0.2448
      8 C         142.6497  140.0615  157.8184 C.2     1  UNL1        0.3079
      9 O         143.8422  139.4705  158.5101 O.2     1  UNL1       -0.2522
     10 N         142.3604  139.7091  156.3894 N.am    1  UNL1       -0.2844
     11 H         141.5777  140.0970  155.9354 H       1  UNL1        0.1513
     12 C         140.5538  141.5963  157.8642 C.ar    1  UNL1        0.0574
     13 C         140.6959  142.8652  157.0769 C.ar    1  UNL1        0.0151
     14 C         139.5033  143.4562  156.3854 C.ar    1  UNL1        0.0036
     15 C         138.1685  142.7784  156.4811 C.ar    1  UNL1        0.0297
     16 C         138.0265  141.5095  157.2683 C.ar    1  UNL1        0.1414
     17 F         136.6918  140.8317  157.3640 F       1  UNL1       -0.2041
     18 C         139.2191  140.9185  157.9598 C.ar    1  UNL1        0.0446
     19 C         143.2637  138.7655  155.6520 C.3     1  UNL1        0.1177
     20 C         142.9379  137.3022  155.5997 C.ar    1  UNL1       -0.0025
     21 C         144.0314  136.2849  155.7388 C.ar    1  UNL1       -0.0019
     22 C         143.7055  134.8216  155.6864 C.ar    1  UNL1        0.0100
     23 C         142.2862  134.3758  155.4950 C.ar    1  UNL1        0.0684
     24 C         141.1926  135.3930  155.3559 C.ar    1  UNL1        0.0100
     25 C         141.5185  136.8563  155.4082 C.ar    1  UNL1       -0.0019
     26 C         141.9603  132.9125  155.4426 C.1     1  UNL1        0.1004
     27 N         141.6345  131.4493  155.3903 N.1     1  UNL1       -0.1908
     28 C         142.9035  142.4151  164.2718 C.3     1  UNL1        0.0724
     29 C         141.8820  143.1551  165.0834 C.3     1  UNL1        0.0215
     30 C         141.3071  140.0838  169.8874 C.2     1  UNL1        0.2497
     31 O         140.0744  139.4927  170.5046 O.2     1  UNL1       -0.2724
     32 N         141.2069  140.8593  168.6073 N.am    1  UNL1       -0.2777
     33 C         142.4396  141.4504  167.9901 C.3     1  UNL1        0.0938
     34 C         142.3395  142.2258  166.7100 C.3     1  UNL1        0.0256
     35 C         141.0066  142.4101  166.0471 C.3     1  UNL1        0.0236
     36 C         139.7739  141.8190  166.6643 C.3     1  UNL1        0.0256
     37 C         139.8741  141.0436  167.9444 C.3     1  UNL1        0.0938
     38 C         139.9777  142.8532  165.0495 C.ar    1  UNL1       -0.0204
     39 C         139.9305  144.2856  164.6067 C.ar    1  UNL1       -0.0041
     40 C         138.9016  144.7286  163.6091 C.ar    1  UNL1        0.0020
     41 C         137.9200  143.7393  163.0544 C.ar    1  UNL1        0.0296
     42 C         137.9673  142.3069  163.4972 C.ar    1  UNL1        0.1398
     43 F         136.9857  141.3176  162.9425 F       1  UNL1       -0.2042
     44 C         138.9961  141.8639  164.4948 C.ar    1  UNL1        0.0254
     45 C         142.5144  141.2552  171.1798 C.3     1  UNL1        0.0387
     46 C         142.6400  139.8995  170.5503 C.3     1  UNL1        0.1565
     47 C         142.7656  138.5438  169.9208 C.3     1  UNL1        0.0387
     48 O         143.9729  139.7152  171.2132 O.3     1  UNL1       -0.3781
     49 H         144.3368  138.8489  170.9723 H       1  UNL1        0.2109
@<TRIPOS>BOND
     1    45    46    1
     2    46    47    1
     3    46    48    1
     4    46    30    1
     5    30    31    2
     6    30    32   am
     7    32    33    1
     8    33    34    1
     9    34    35    1
    10    35    29    1
    11    29    28    1
    12    28     1    1
    13     1     2    1
    14     2     3    1
    15     3     4    1
    16     4     7    1
    17     7     8   am
    18     8     9    2
    19     8    10   am
    20    10    19    1
    21    19    20    1
    22    20    21   ar
    23    21    22   ar
    24    22    23   ar
    25    23    26    1
    26    26    27    3
    27    23    24   ar
    28    24    25   ar
    29     7    12    1
    30    12    13   ar
    31    13    14   ar
    32    14    15   ar
    33    15    16   ar
    34    16    17    1
    35    16    18   ar
    36     4     5    1
    37     5     6    1
    38    35    38    1
    39    38    39   ar
    40    39    40   ar
    41    40    41   ar
    42    41    42   ar
    43    42    43    1
    44    42    44   ar
    45    35    36    1
    46    36    37    1
    47    37    32    1
    48     6     1    1
    49    44    38   ar
    50    25    20   ar
    51    18    12   ar
    52    48    49    1
    53    10    11    1
@<TRIPOS>MOLECULE
*****
 49 53 0 0 0
SMALL
GASTEIGER

@<TRIPOS>ATOM
      1 N         142.4140  138.3594  162.8540 N.3     1  UNL1       -0.2726
      2 C         143.6438  138.4490  162.0000 C.3     1  UNL1        0.0738
      3 C         143.5188  138.4743  160.5053 C.3     1  UNL1        0.0376
      4 C         142.1640  138.4100  159.8649 C.3     1  UNL1        0.0840
      5 C         140.9342  138.3205  160.7190 C.3     1  UNL1        0.0376
      6 C         141.0592  138.2951  162.2136 C.3     1  UNL1        0.0738
      7 N         142.0389  138.4353  158.3703 N.am    1  UNL1       -0.2448
      8 C         142.7275  137.3912  157.5423 C.2     1  UNL1        0.3079
      9 O         143.5410  136.3217  158.2089 O.2     1  UNL1       -0.2522
     10 N         142.6025  137.4165  156.0477 N.am    1  UNL1       -0.2844
     11 H         142.0685  138.1184  155.6102 H       1  UNL1        0.1513
     12 C         141.2254  139.5048  157.7038 C.ar    1  UNL1        0.0574
     13 C         141.8035  140.8751  157.5087 C.ar    1  UNL1        0.0151
     14 C         140.9899  141.9445  156.8422 C.ar    1  UNL1        0.0036
     15 C         139.5980  141.6437  156.3708 C.ar    1  UNL1        0.0297
     16 C         139.0198  140.2735  156.5658 C.ar    1  UNL1        0.1414
     17 F         137.6279  139.9727  156.0944 F       1  UNL1       -0.2041
     18 C         139.8335  139.2040  157.2323 C.ar    1  UNL1        0.0446
     19 C         143.2910  136.3723  155.2197 C.3     1  UNL1        0.1177
     20 C         142.5924  135.0823  154.9068 C.ar    1  UNL1       -0.0025
     21 C         142.0459  134.8400  153.5311 C.ar    1  UNL1       -0.0019
     22 C         141.3472  133.5500  153.2181 C.ar    1  UNL1        0.0100
     23 C         141.1950  132.5025  154.2809 C.ar    1  UNL1        0.0684
     24 C         141.7415  132.7448  155.6566 C.ar    1  UNL1        0.0100
     25 C         142.4402  134.0348  155.9696 C.ar    1  UNL1       -0.0019
     26 C         140.4963  131.2126  153.9680 C.1     1  UNL1        0.1004
     27 N         139.7976  129.9227  153.6551 N.1     1  UNL1       -0.1908
     28 C         142.5390  138.3341  164.3486 C.3     1  UNL1        0.0724
     29 C         143.4730  139.2829  165.0394 C.3     1  UNL1        0.0215
     30 C         140.6690  141.6024  169.4665 C.2     1  UNL1        0.2497
     31 O         140.3389  143.0388  169.7448 O.2     1  UNL1       -0.2724
     32 N         141.4227  141.2332  168.2233 N.am    1  UNL1       -0.2777
     33 C         141.7528  139.7967  167.9450 C.3     1  UNL1        0.0938
     34 C         142.5066  139.4276  166.7018 C.3     1  UNL1        0.0256
     35 C         142.9303  140.4950  165.7369 C.3     1  UNL1        0.0236
     36 C         142.6002  141.9315  166.0152 C.3     1  UNL1        0.0256
     37 C         141.8465  142.3006  167.2584 C.3     1  UNL1        0.0938
     38 C         143.5425  141.1415  164.5297 C.ar    1  UNL1       -0.0204
     39 C         145.0252  141.0732  164.3132 C.ar    1  UNL1       -0.0041
     40 C         145.6374  141.7197  163.1060 C.ar    1  UNL1        0.0020
     41 C         144.7668  142.4344  162.1154 C.ar    1  UNL1        0.0296
     42 C         143.2841  142.5026  162.3319 C.ar    1  UNL1        0.1398
     43 F         142.4136  143.2173  161.3412 F       1  UNL1       -0.2042
     44 C         142.6720  141.8561  163.5390 C.ar    1  UNL1        0.0254
     45 C         138.9675  140.3516  169.6675 C.3     1  UNL1        0.0387
     46 C         140.2452  140.5350  170.4314 C.3     1  UNL1        0.1565
     47 C         141.5230  140.7184  171.1954 C.3     1  UNL1        0.0387
     48 O         139.8215  139.4675  171.3964 O.3     1  UNL1       -0.3781
     49 H         140.5091  139.3492  172.0702 H       1  UNL1        0.2109
@<TRIPOS>BOND
     1    45    46    1
     2    46    47    1
     3    46    48    1
     4    46    30    1
     5    30    31    2
     6    30    32   am
     7    32    33    1
     8    33    34    1
     9    34    35    1
    10    35    29    1
    11    29    28    1
    12    28     1    1
    13     1     2    1
    14     2     3    1
    15     3     4    1
    16     4     7    1
    17     7     8   am
    18     8     9    2
    19     8    10   am
    20    10    19    1
    21    19    20    1
    22    20    21   ar
    23    21    22   ar
    24    22    23   ar
    25    23    26    1
    26    26    27    3
    27    23    24   ar
    28    24    25   ar
    29     7    12    1
    30    12    13   ar
    31    13    14   ar
    32    14    15   ar
    33    15    16   ar
    34    16    17    1
    35    16    18   ar
    36     4     5    1
    37     5     6    1
    38    35    38    1
    39    38    39   ar
    40    39    40   ar
    41    40    41   ar
    42    41    42   ar
    43    42    43    1
    44    42    44   ar
    45    35    36    1
    46    36    37    1
    47    37    32    1
    48     6     1    1
    49    44    38   ar
    50    25    20   ar
    51    18    12   ar
    52    48    49    1
    53    10    11    1
@<TRIPOS>MOLECULE
*****
 49 53 0 0 0
SMALL
GASTEIGER

@<TRIPOS>ATOM
      1 N         139.9533  138.5541  162.0401 N.3     1  UNL1       -0.2726
      2 C         139.0698  138.8311  160.8601 C.3     1  UNL1        0.0738
      3 C         139.6533  138.8686  159.4787 C.3     1  UNL1        0.0376
      4 C         141.1203  138.6289  159.2774 C.3     1  UNL1        0.0840
      5 C         142.0038  138.3518  160.4575 C.3     1  UNL1        0.0376
      6 C         141.4203  138.3144  161.8389 C.3     1  UNL1        0.0738
      7 N         141.7038  138.6663  157.8961 N.am    1  UNL1       -0.2448
      8 C         142.2573  139.9492  157.3502 C.2     1  UNL1        0.3079
      9 O         142.2274  141.1945  158.1858 O.2     1  UNL1       -0.2522
     10 N         142.8408  139.9866  155.9689 N.am    1  UNL1       -0.2844
     11 H         142.8605  139.1692  155.4205 H       1  UNL1        0.1513
     12 C         141.7337  137.4209  157.0606 C.ar    1  UNL1        0.0574
     13 C         140.6047  137.1217  156.1195 C.ar    1  UNL1        0.0151
     14 C         140.6346  135.8763  155.2840 C.ar    1  UNL1        0.0036
     15 C         141.7937  134.9300  155.3897 C.ar    1  UNL1        0.0297
     16 C         142.9227  135.2292  156.3309 C.ar    1  UNL1        0.1414
     17 F         144.0818  134.2828  156.4366 F       1  UNL1       -0.2041
     18 C         142.8927  136.4746  157.1663 C.ar    1  UNL1        0.0446
     19 C         143.3944  141.2694  155.4231 C.3     1  UNL1        0.1177
     20 C         144.8765  141.4407  155.2676 C.ar    1  UNL1       -0.0025
     21 C         145.5341  141.1276  153.9563 C.ar    1  UNL1       -0.0019
     22 C         147.0162  141.2989  153.8008 C.ar    1  UNL1        0.0100
     23 C         147.8405  141.7832  154.9566 C.ar    1  UNL1        0.0684
     24 C         147.1829  142.0963  156.2679 C.ar    1  UNL1        0.0100
     25 C         145.7008  141.9251  156.4234 C.ar    1  UNL1       -0.0019
     26 C         149.3226  141.9545  154.8011 C.1     1  UNL1        0.1004
     27 N         150.8046  142.1257  154.6457 N.1     1  UNL1       -0.1908
     28 C         139.3699  138.5166  163.4215 C.3     1  UNL1        0.0724
     29 C         138.5721  139.6803  163.9306 C.3     1  UNL1        0.0215
     30 C         140.4484  141.2930  169.0998 C.2     1  UNL1        0.2497
     31 O         141.1055  142.5729  169.5239 O.2     1  UNL1       -0.2724
     32 N         140.0394  141.0978  167.6699 N.am    1  UNL1       -0.2777
     33 C         139.3823  139.8179  167.2458 C.3     1  UNL1        0.0938
     34 C         138.9733  139.6227  165.8159 C.3     1  UNL1        0.0256
     35 C         139.2214  140.7074  164.8101 C.3     1  UNL1        0.0236
     36 C         139.8785  141.9874  165.2342 C.3     1  UNL1        0.0256
     37 C         140.2875  142.1826  166.6641 C.3     1  UNL1        0.0938
     38 C         139.2440  141.4355  163.4988 C.ar    1  UNL1       -0.0204
     39 C         137.9564  141.8121  162.8278 C.ar    1  UNL1       -0.0041
     40 C         137.9790  142.5402  161.5165 C.ar    1  UNL1        0.0020
     41 C         139.2892  142.8917  160.8764 C.ar    1  UNL1        0.0296
     42 C         140.5768  142.5151  161.5474 C.ar    1  UNL1        0.1398
     43 F         141.8870  142.8666  160.9072 F       1  UNL1       -0.2042
     44 C         140.5541  141.7870  162.8586 C.ar    1  UNL1        0.0254
     45 C         141.6201  139.7472  169.9587 C.3     1  UNL1        0.0387
     46 C         140.2003  140.2082  170.1056 C.3     1  UNL1        0.1565
     47 C         138.7805  140.6692  170.2525 C.3     1  UNL1        0.0387
     48 O         139.9523  139.1234  171.1114 O.3     1  UNL1       -0.3781
     49 H         139.0331  139.1705  171.4179 H       1  UNL1        0.2109
@<TRIPOS>BOND
     1    45    46    1
     2    46    47    1
     3    46    48    1
     4    46    30    1
     5    30    31    2
     6    30    32   am
     7    32    33    1
     8    33    34    1
     9    34    35    1
    10    35    29    1
    11    29    28    1
    12    28     1    1
    13     1     2    1
    14     2     3    1
    15     3     4    1
    16     4     7    1
    17     7     8   am
    18     8     9    2
    19     8    10   am
    20    10    19    1
    21    19    20    1
    22    20    21   ar
    23    21    22   ar
    24    22    23   ar
    25    23    26    1
    26    26    27    3
    27    23    24   ar
    28    24    25   ar
    29     7    12    1
    30    12    13   ar
    31    13    14   ar
    32    14    15   ar
    33    15    16   ar
    34    16    17    1
    35    16    18   ar
    36     4     5    1
    37     5     6    1
    38    35    38    1
    39    38    39   ar
    40    39    40   ar
    41    40    41   ar
    42    41    42   ar
    43    42    43    1
    44    42    44   ar
    45    35    36    1
    46    36    37    1
    47    37    32    1
    48     6     1    1
    49    44    38   ar
    50    25    20   ar
    51    18    12   ar
    52    48    49    1
    53    10    11    1
@<TRIPOS>MOLECULE
*****
 49 53 0 0 0
SMALL
GASTEIGER

@<TRIPOS>ATOM
      1 N         141.5594  145.3891  157.8739 N.3     1  UNL1       -0.2726
      2 C         142.5038  144.2499  158.1193 C.3     1  UNL1        0.0738
      3 C         142.3657  143.4145  159.3575 C.3     1  UNL1        0.0376
      4 C         141.2831  143.7184  160.3504 C.3     1  UNL1        0.0840
      5 C         140.3387  144.8576  160.1050 C.3     1  UNL1        0.0376
      6 C         140.4768  145.6930  158.8668 C.3     1  UNL1        0.0738
      7 N         141.1450  142.8831  161.5886 N.am    1  UNL1       -0.2448
      8 C         142.1040  143.0659  162.7274 C.2     1  UNL1        0.3079
      9 O         143.2010  144.0839  162.6280 O.2     1  UNL1       -0.2522
     10 N         141.9659  142.2305  163.9656 N.am    1  UNL1       -0.2844
     11 H         141.2458  141.5623  164.0309 H       1  UNL1        0.1513
     12 C         140.0479  141.8650  161.6879 C.ar    1  UNL1        0.0574
     13 C         138.7332  142.2370  162.3070 C.ar    1  UNL1        0.0151
     14 C         137.6362  141.2189  162.4063 C.ar    1  UNL1        0.0036
     15 C         137.8538  139.8287  161.8864 C.ar    1  UNL1        0.0297
     16 C         139.1684  139.4568  161.2673 C.ar    1  UNL1        0.1414
     17 F         139.3860  138.0666  160.7475 F       1  UNL1       -0.2041
     18 C         140.2655  140.4749  161.1681 C.ar    1  UNL1        0.0446
     19 C         142.9249  142.4133  165.1045 C.3     1  UNL1        0.1177
     20 C         142.4271  142.3682  166.5188 C.ar    1  UNL1       -0.0025
     21 C         140.9613  142.5121  166.8028 C.ar    1  UNL1       -0.0019
     22 C         140.4635  142.4670  168.2171 C.ar    1  UNL1        0.0100
     23 C         141.4315  142.2779  169.3472 C.ar    1  UNL1        0.0684
     24 C         142.8973  142.1339  169.0632 C.ar    1  UNL1        0.0100
     25 C         143.3951  142.1791  167.6489 C.ar    1  UNL1       -0.0019
     26 C         140.9337  142.2328  170.7615 C.1     1  UNL1        0.1004
     27 N         140.4359  142.1877  172.1758 N.1     1  UNL1       -0.1908
     28 C         141.6974  146.2244  156.6358 C.3     1  UNL1        0.0724
     29 C         141.1397  145.7326  155.3331 C.3     1  UNL1        0.0215
     30 C         136.9213  141.8603  155.5604 C.2     1  UNL1        0.2497
     31 O         135.4469  142.0363  155.3478 O.2     1  UNL1       -0.2724
     32 N         137.8415  143.0394  155.4470 N.am    1  UNL1       -0.2777
     33 C         139.3158  142.8633  155.6596 C.3     1  UNL1        0.0938
     34 C         140.2360  144.0424  155.5462 C.3     1  UNL1        0.0256
     35 C         139.6819  145.3976  155.2201 C.3     1  UNL1        0.0236
     36 C         138.2076  145.5737  155.0074 C.3     1  UNL1        0.0256
     37 C         137.2874  144.3945  155.1209 C.3     1  UNL1        0.0938
     38 C         139.6341  146.8692  154.9332 C.ar    1  UNL1       -0.0204
     39 C         140.3942  147.4313  153.7686 C.ar    1  UNL1       -0.0041
     40 C         140.3463  148.9029  153.4818 C.ar    1  UNL1        0.0020
     41 C         139.5383  149.8122  154.3595 C.ar    1  UNL1        0.0296
     42 C         138.7782  149.2500  155.5240 C.ar    1  UNL1        0.1398
     43 F         137.9703  150.1593  156.4016 F       1  UNL1       -0.2042
     44 C         138.8261  147.7785  155.8108 C.ar    1  UNL1        0.0254
     45 C         137.5848  140.1975  154.4226 C.3     1  UNL1        0.0387
     46 C         137.4754  140.5051  155.8866 C.3     1  UNL1        0.1565
     47 C         137.3660  140.8127  157.3506 C.3     1  UNL1        0.0387
     48 O         138.0295  139.1498  156.2127 O.3     1  UNL1       -0.3781
     49 H         138.0823  139.0452  157.1756 H       1  UNL1        0.2109
@<TRIPOS>BOND
     1    45    46    1
     2    46    47    1
     3    46    48    1
     4    46    30    1
     5    30    31    2
     6    30    32   am
     7    32    33    1
     8    33    34    1
     9    34    35    1
    10    35    29    1
    11    29    28    1
    12    28     1    1
    13     1     2    1
    14     2     3    1
    15     3     4    1
    16     4     7    1
    17     7     8   am
    18     8     9    2
    19     8    10   am
    20    10    19    1
    21    19    20    1
    22    20    21   ar
    23    21    22   ar
    24    22    23   ar
    25    23    26    1
    26    26    27    3
    27    23    24   ar
    28    24    25   ar
    29     7    12    1
    30    12    13   ar
    31    13    14   ar
    32    14    15   ar
    33    15    16   ar
    34    16    17    1
    35    16    18   ar
    36     4     5    1
    37     5     6    1
    38    35    38    1
    39    38    39   ar
    40    39    40   ar
    41    40    41   ar
    42    41    42   ar
    43    42    43    1
    44    42    44   ar
    45    35    36    1
    46    36    37    1
    47    37    32    1
    48     6     1    1
    49    44    38   ar
    50    25    20   ar
    51    18    12   ar
    52    48    49    1
    53    10    11    1
@<TRIPOS>MOLECULE
*****
 49 53 0 0 0
SMALL
GASTEIGER

@<TRIPOS>ATOM
      1 N         142.1989  140.5159  162.2378 N.3     1  UNL1       -0.2726
      2 C         143.2979  139.6063  161.7742 C.3     1  UNL1        0.0738
      3 C         143.5115  139.3751  160.3076 C.3     1  UNL1        0.0376
      4 C         142.6262  140.0534  159.3046 C.3     1  UNL1        0.0840
      5 C         141.5272  140.9629  159.7682 C.3     1  UNL1        0.0376
      6 C         141.3135  141.1942  161.2348 C.3     1  UNL1        0.0738
      7 N         142.8398  139.8221  157.8380 N.am    1  UNL1       -0.2448
      8 C         142.2016  138.6440  157.1638 C.2     1  UNL1        0.3079
      9 O         141.3497  137.6971  157.9561 O.2     1  UNL1       -0.2522
     10 N         142.4152  138.4127  155.6971 N.am    1  UNL1       -0.2844
     11 H         142.9743  139.0342  155.1771 H       1  UNL1        0.1513
     12 C         143.6917  140.7690  157.0458 C.ar    1  UNL1        0.0574
     13 C         145.1590  140.5026  156.8850 C.ar    1  UNL1        0.0151
     14 C         146.0108  141.4495  156.0927 C.ar    1  UNL1        0.0036
     15 C         145.3952  142.6630  155.4612 C.ar    1  UNL1        0.0297
     16 C         143.9279  142.9294  155.6220 C.ar    1  UNL1        0.1414
     17 F         143.3123  144.1428  154.9905 F       1  UNL1       -0.2041
     18 C         143.0761  141.9824  156.4143 C.ar    1  UNL1        0.0446
     19 C         141.7770  137.2345  155.0229 C.3     1  UNL1        0.1177
     20 C         142.1527  135.8414  155.4331 C.ar    1  UNL1       -0.0025
     21 C         141.2133  134.7025  155.1678 C.ar    1  UNL1       -0.0019
     22 C         141.5889  133.3094  155.5779 C.ar    1  UNL1        0.0100
     23 C         142.9040  133.0553  156.2533 C.ar    1  UNL1        0.0684
     24 C         143.8433  134.1943  156.5186 C.ar    1  UNL1        0.0100
     25 C         143.4677  135.5874  156.1085 C.ar    1  UNL1       -0.0019
     26 C         143.2796  131.6622  156.6635 C.1     1  UNL1        0.1004
     27 N         143.6552  130.2692  157.0736 N.1     1  UNL1       -0.1908
     28 C         141.9852  140.7472  163.7044 C.3     1  UNL1        0.0724
     29 C         140.6531  141.2241  164.2022 C.3     1  UNL1        0.0215
     30 C         140.0388  140.7570  169.8808 C.2     1  UNL1        0.2497
     31 O         139.1718  139.8275  170.6772 O.2     1  UNL1       -0.2724
     32 N         140.0302  140.6914  168.3822 N.am    1  UNL1       -0.2777
     33 C         140.8972  141.6208  167.5858 C.3     1  UNL1        0.0938
     34 C         140.8886  141.5552  166.0873 C.3     1  UNL1        0.0256
     35 C         140.0129  140.5601  165.3852 C.3     1  UNL1        0.0236
     36 C         139.1459  139.6306  166.1816 C.3     1  UNL1        0.0256
     37 C         139.1545  139.6963  167.6801 C.3     1  UNL1        0.0938
     38 C         139.3596  139.7956  164.2722 C.ar    1  UNL1       -0.0204
     39 C         139.5208  138.3065  164.1896 C.ar    1  UNL1       -0.0041
     40 C         138.8674  137.5420  163.0766 C.ar    1  UNL1        0.0020
     41 C         138.0529  138.2666  162.0463 C.ar    1  UNL1        0.0296
     42 C         137.8917  139.7556  162.1289 C.ar    1  UNL1        0.1398
     43 F         137.0773  140.4801  161.0985 F       1  UNL1       -0.2042
     44 C         138.5451  140.5200  163.2418 C.ar    1  UNL1        0.0254
     45 C         139.8200  142.7744  170.4988 C.3     1  UNL1        0.0387
     46 C         140.9144  141.7521  170.5829 C.3     1  UNL1        0.1565
     47 C         142.0088  140.7297  170.6670 C.3     1  UNL1        0.0387
     48 O         141.7901  142.7472  171.2851 O.3     1  UNL1       -0.3781
     49 H         142.6460  142.3384  171.4877 H       1  UNL1        0.2109
@<TRIPOS>BOND
     1    45    46    1
     2    46    47    1
     3    46    48    1
     4    46    30    1
     5    30    31    2
     6    30    32   am
     7    32    33    1
     8    33    34    1
     9    34    35    1
    10    35    29    1
    11    29    28    1
    12    28     1    1
    13     1     2    1
    14     2     3    1
    15     3     4    1
    16     4     7    1
    17     7     8   am
    18     8     9    2
    19     8    10   am
    20    10    19    1
    21    19    20    1
    22    20    21   ar
    23    21    22   ar
    24    22    23   ar
    25    23    26    1
    26    26    27    3
    27    23    24   ar
    28    24    25   ar
    29     7    12    1
    30    12    13   ar
    31    13    14   ar
    32    14    15   ar
    33    15    16   ar
    34    16    17    1
    35    16    18   ar
    36     4     5    1
    37     5     6    1
    38    35    38    1
    39    38    39   ar
    40    39    40   ar
    41    40    41   ar
    42    41    42   ar
    43    42    43    1
    44    42    44   ar
    45    35    36    1
    46    36    37    1
    47    37    32    1
    48     6     1    1
    49    44    38   ar
    50    25    20   ar
    51    18    12   ar
    52    48    49    1
    53    10    11    1
