@<TRIPOS>MOLECULE
*****
 32 35 0 0 0
SMALL
GASTEIGER

@<TRIPOS>ATOM
      1 C         142.2721  141.1234  168.5523 C.3     1  UNL1        0.0705
      2 C         143.1103  141.7713  169.6142 C.3     1  UNL1        0.0082
      3 C         142.6176  143.0060  170.3093 C.3     1  UNL1        0.0005
      4 C         141.2867  143.5926  169.9424 C.3     1  UNL1        0.0005
      5 C         140.4485  142.9447  168.8805 C.3     1  UNL1        0.0095
      6 C         140.9412  141.7102  168.1854 C.3     1  UNL1        0.0840
      7 C         140.1030  141.0623  167.1235 C.2     1  UNL1        0.2261
      8 O         139.3102  139.8294  167.4421 O.2     1  UNL1       -0.2748
      9 N         140.0576  141.6473  165.7431 N.am    1  UNL1       -0.2817
     10 H         140.5779  142.4564  165.5340 H       1  UNL1        0.1549
     11 C         139.2194  140.9994  164.6811 C.ar    1  UNL1        0.0847
     12 C         139.4103  139.6184  164.1276 C.ar    1  UNL1        0.1110
     13 N         138.3520  139.3842  163.0906 N.ar    1  UNL1       -0.2464
     14 C         138.1706  138.1334  162.2829 C.3     1  UNL1        0.1538
     15 N         137.5070  140.6205  163.0033 N.ar    1  UNL1       -0.1723
     16 C         138.0431  141.6187  163.9863 C.ar    1  UNL1        0.0938
     17 C         137.4985  142.9947  164.2314 C.3     1  UNL1        0.0553
     18 C         142.7647  139.8889  167.8573 C.2     1  UNL1        0.1731
     19 O         143.0389  138.6429  168.6462 O.2     1  UNL1       -0.2913
     20 C         143.4203  139.9230  163.4054 C.ar    1  UNL1        0.0194
     21 C         142.9287  138.6776  164.0816 C.ar    1  UNL1        0.0016
     22 C         142.7102  138.6662  165.5655 C.ar    1  UNL1        0.0029
     23 C         142.9833  139.9003  166.3733 C.ar    1  UNL1        0.0347
     24 C         143.4748  141.1457  165.6971 C.ar    1  UNL1        0.0029
     25 C         143.6933  141.1571  164.2132 C.ar    1  UNL1        0.0016
     26 C         143.9420  141.5793  158.4189 C.3     1  UNL1        0.0515
     27 C         143.8786  140.6957  159.6294 C.ar    1  UNL1        0.0535
     28 C         143.6112  141.1445  161.0354 C.ar    1  UNL1        0.0349
     29 C         143.6388  139.9344  161.9214 C.ar    1  UNL1        0.1018
     30 N         143.9233  138.7377  161.0629 N.ar    1  UNL1       -0.1730
     31 N         144.0715  139.2082  159.6463 N.ar    1  UNL1       -0.2798
     32 H         144.2620  138.6404  158.8649 H       1  UNL1        0.1886
@<TRIPOS>BOND
     1    26    27    1
     2    27    28   ar
     3    28    29   ar
     4    29    20    1
     5    20    21   ar
     6    21    22   ar
     7    22    23   ar
     8    23    18    1
     9    18    19    2
    10     1    18    1
    11     1     2    1
    12     2     3    1
    13     3     4    1
    14     4     5    1
    15     5     6    1
    16     6     7    1
    17     7     8    2
    18     7     9   am
    19     9    11    1
    20    11    12   ar
    21    12    13   ar
    22    13    14    1
    23    13    15   ar
    24    15    16   ar
    25    16    17    1
    26    23    24   ar
    27    24    25   ar
    28    29    30   ar
    29    30    31   ar
    30    31    27   ar
    31    25    20   ar
    32     6     1    1
    33    16    11   ar
    34     9    10    1
    35    31    32    1
@<TRIPOS>MOLECULE
*****
 32 35 0 0 0
SMALL
GASTEIGER

@<TRIPOS>ATOM
      1 C         141.1926  141.8588  168.0871 C.3     1  UNL1        0.0705
      2 C         140.6330  142.6232  169.2501 C.3     1  UNL1        0.0082
      3 C         139.5696  142.0075  170.1105 C.3     1  UNL1        0.0005
      4 C         139.0658  140.6275  169.8079 C.3     1  UNL1        0.0005
      5 C         139.6254  139.8631  168.6449 C.3     1  UNL1        0.0095
      6 C         140.6887  140.4787  167.7845 C.3     1  UNL1        0.0840
      7 C         141.2483  139.7143  166.6215 C.2     1  UNL1        0.2261
      8 O         142.5063  138.9139  166.7856 O.2     1  UNL1       -0.2748
      9 N         140.5499  139.7503  165.2945 N.am    1  UNL1       -0.2817
     10 H         139.7243  140.2756  165.1869 H       1  UNL1        0.1549
     11 C         141.1095  138.9858  164.1315 C.ar    1  UNL1        0.0847
     12 C         142.4977  139.1140  163.5780 C.ar    1  UNL1        0.1110
     13 N         142.6253  138.1664  162.4222 N.ar    1  UNL1       -0.2464
     14 C         143.8476  137.9676  161.5759 C.3     1  UNL1        0.1538
     15 N         141.3159  137.4526  162.2614 N.ar    1  UNL1       -0.1723
     16 C         140.3791  137.9590  163.3178 C.ar    1  UNL1        0.0938
     17 C         138.9608  137.5163  163.5243 C.3     1  UNL1        0.0553
     18 C         142.2559  142.4745  167.2268 C.2     1  UNL1        0.1731
     19 O         143.6744  142.5290  167.7114 O.2     1  UNL1       -0.2913
     20 C         141.1904  144.1579  163.1918 C.ar    1  UNL1        0.0194
     21 C         140.1182  143.9267  164.2150 C.ar    1  UNL1        0.0016
     22 C         140.4733  143.3656  165.5599 C.ar    1  UNL1        0.0029
     23 C         141.9008  143.0356  165.8817 C.ar    1  UNL1        0.0347
     24 C         142.9730  143.2668  164.8586 C.ar    1  UNL1        0.0029
     25 C         142.6178  143.8279  163.5137 C.ar    1  UNL1        0.0016
     26 C         141.3734  145.4106  158.0656 C.3     1  UNL1        0.0515
     27 C         140.9194  145.2948  159.4905 C.ar    1  UNL1        0.0535
     28 C         141.6468  144.5834  160.5926 C.ar    1  UNL1        0.0349
     29 C         140.8353  144.7191  161.8468 C.ar    1  UNL1        0.1018
     30 N         139.6062  145.5144  161.5198 N.ar    1  UNL1       -0.1730
     31 N         139.6582  145.8703  160.0636 N.ar    1  UNL1       -0.2798
     32 H         138.9831  146.3902  159.5705 H       1  UNL1        0.1886
@<TRIPOS>BOND
     1    26    27    1
     2    27    28   ar
     3    28    29   ar
     4    29    20    1
     5    20    21   ar
     6    21    22   ar
     7    22    23   ar
     8    23    18    1
     9    18    19    2
    10     1    18    1
    11     1     2    1
    12     2     3    1
    13     3     4    1
    14     4     5    1
    15     5     6    1
    16     6     7    1
    17     7     8    2
    18     7     9   am
    19     9    11    1
    20    11    12   ar
    21    12    13   ar
    22    13    14    1
    23    13    15   ar
    24    15    16   ar
    25    16    17    1
    26    23    24   ar
    27    24    25   ar
    28    29    30   ar
    29    30    31   ar
    30    31    27   ar
    31    25    20   ar
    32     6     1    1
    33    16    11   ar
    34     9    10    1
    35    31    32    1
@<TRIPOS>MOLECULE
*****
 32 35 0 0 0
SMALL
GASTEIGER

@<TRIPOS>ATOM
      1 C         140.1438  139.9674  167.6003 C.3     1  UNL1        0.0705
      2 C         139.7030  140.2211  169.0115 C.3     1  UNL1        0.0082
      3 C         140.7029  140.1777  170.1288 C.3     1  UNL1        0.0005
      4 C         142.1435  139.8806  169.8350 C.3     1  UNL1        0.0005
      5 C         142.5843  139.6268  168.4238 C.3     1  UNL1        0.0095
      6 C         141.5845  139.6702  167.3065 C.3     1  UNL1        0.0840
      7 C         142.0252  139.4165  165.8954 C.2     1  UNL1        0.2261
      8 O         141.8594  138.0534  165.2915 O.2     1  UNL1       -0.2748
      9 N         142.6318  140.5257  165.0882 N.am    1  UNL1       -0.2817
     10 H         142.7406  141.4203  165.4845 H       1  UNL1        0.1549
     11 C         143.0725  140.2719  163.6770 C.ar    1  UNL1        0.0847
     12 C         142.2291  139.6916  162.5807 C.ar    1  UNL1        0.1110
     13 N         143.0694  139.6150  161.3405 N.ar    1  UNL1       -0.2464
     14 C         142.6250  139.0965  160.0050 C.3     1  UNL1        0.1538
     15 N         144.4322  140.1479  161.6704 N.ar    1  UNL1       -0.1723
     16 C         144.4341  140.5539  163.1144 C.ar    1  UNL1        0.0938
     17 C         145.5940  141.1392  163.8641 C.3     1  UNL1        0.0553
     18 C         139.1440  140.0107  166.4830 C.2     1  UNL1        0.1731
     19 O         138.0200  139.0182  166.4434 O.2     1  UNL1       -0.2913
     20 C         139.5163  143.1184  163.2498 C.ar    1  UNL1        0.0194
     21 C         139.1180  141.7155  162.8993 C.ar    1  UNL1        0.0016
     22 C         138.9939  140.6796  163.9770 C.ar    1  UNL1        0.0029
     23 C         139.2681  141.0467  165.4053 C.ar    1  UNL1        0.0347
     24 C         139.6664  142.4497  165.7559 C.ar    1  UNL1        0.0029
     25 C         139.7905  143.4855  164.6781 C.ar    1  UNL1        0.0016
     26 C         140.8225  145.5510  158.7490 C.3     1  UNL1        0.0515
     27 C         140.2408  145.2725  160.1032 C.ar    1  UNL1        0.0535
     28 C         140.3757  143.9931  160.8746 C.ar    1  UNL1        0.0349
     29 C         139.6404  144.1544  162.1721 C.ar    1  UNL1        0.1018
     30 N         139.0511  145.5334  162.2026 N.ar    1  UNL1       -0.1730
     31 N         139.4221  146.2245  160.9240 N.ar    1  UNL1       -0.2798
     32 H         139.1722  147.1418  160.6684 H       1  UNL1        0.1886
@<TRIPOS>BOND
     1    26    27    1
     2    27    28   ar
     3    28    29   ar
     4    29    20    1
     5    20    21   ar
     6    21    22   ar
     7    22    23   ar
     8    23    18    1
     9    18    19    2
    10     1    18    1
    11     1     2    1
    12     2     3    1
    13     3     4    1
    14     4     5    1
    15     5     6    1
    16     6     7    1
    17     7     8    2
    18     7     9   am
    19     9    11    1
    20    11    12   ar
    21    12    13   ar
    22    13    14    1
    23    13    15   ar
    24    15    16   ar
    25    16    17    1
    26    23    24   ar
    27    24    25   ar
    28    29    30   ar
    29    30    31   ar
    30    31    27   ar
    31    25    20   ar
    32     6     1    1
    33    16    11   ar
    34     9    10    1
    35    31    32    1
@<TRIPOS>MOLECULE
*****
 32 35 0 0 0
SMALL
GASTEIGER

@<TRIPOS>ATOM
      1 C         140.2039  139.9396  167.7781 C.3     1  UNL1        0.0705
      2 C         139.9933  140.1120  169.2532 C.3     1  UNL1        0.0082
      3 C         141.1323  139.8921  170.2042 C.3     1  UNL1        0.0005
      4 C         142.4819  139.4998  169.6801 C.3     1  UNL1        0.0005
      5 C         142.6925  139.3274  168.2050 C.3     1  UNL1        0.0095
      6 C         141.5535  139.5473  167.2540 C.3     1  UNL1        0.0840
      7 C         141.7641  139.3749  165.7789 C.2     1  UNL1        0.2261
      8 O         142.5608  140.3881  165.0116 O.2     1  UNL1       -0.2748
      9 N         141.1780  138.1894  165.0711 N.am    1  UNL1       -0.2817
     10 H         140.6551  137.5245  165.5747 H       1  UNL1        0.1549
     11 C         141.3886  138.0171  163.5960 C.ar    1  UNL1        0.0847
     12 C         142.7056  138.0766  162.8805 C.ar    1  UNL1        0.1110
     13 N         142.4501  137.8512  161.4197 N.ar    1  UNL1       -0.2464
     14 C         143.4875  137.8287  160.3364 C.3     1  UNL1        0.1538
     15 N         140.9752  137.6524  161.2323 N.ar    1  UNL1       -0.1723
     16 C         140.3192  137.7549  162.5774 C.ar    1  UNL1        0.0938
     17 C         138.8514  137.6190  162.8550 C.3     1  UNL1        0.0553
     18 C         139.0649  140.1595  166.8272 C.2     1  UNL1        0.1731
     19 O         137.7994  139.3683  166.9768 O.2     1  UNL1       -0.2913
     20 C         139.4445  143.1932  163.5253 C.ar    1  UNL1        0.0194
     21 C         139.9874  143.4981  164.8899 C.ar    1  UNL1        0.0016
     22 C         139.8609  142.4869  165.9905 C.ar    1  UNL1        0.0029
     23 C         139.1914  141.1708  165.7265 C.ar    1  UNL1        0.0347
     24 C         138.6484  140.8659  164.3619 C.ar    1  UNL1        0.0029
     25 C         138.7750  141.8771  163.2613 C.ar    1  UNL1        0.0016
     26 C         140.8442  145.5618  159.0184 C.3     1  UNL1        0.0515
     27 C         140.2144  145.2931  160.3530 C.ar    1  UNL1        0.0535
     28 C         140.3714  144.0426  161.1663 C.ar    1  UNL1        0.0349
     29 C         139.5710  144.2045  162.4246 C.ar    1  UNL1        0.1018
     30 N         138.9193  145.5550  162.3889 N.ar    1  UNL1       -0.1730
     31 N         139.3169  146.2279  161.1086 N.ar    1  UNL1       -0.2798
     32 H         139.0379  147.1254  160.8157 H       1  UNL1        0.1886
@<TRIPOS>BOND
     1    26    27    1
     2    27    28   ar
     3    28    29   ar
     4    29    20    1
     5    20    21   ar
     6    21    22   ar
     7    22    23   ar
     8    23    18    1
     9    18    19    2
    10     1    18    1
    11     1     2    1
    12     2     3    1
    13     3     4    1
    14     4     5    1
    15     5     6    1
    16     6     7    1
    17     7     8    2
    18     7     9   am
    19     9    11    1
    20    11    12   ar
    21    12    13   ar
    22    13    14    1
    23    13    15   ar
    24    15    16   ar
    25    16    17    1
    26    23    24   ar
    27    24    25   ar
    28    29    30   ar
    29    30    31   ar
    30    31    27   ar
    31    25    20   ar
    32     6     1    1
    33    16    11   ar
    34     9    10    1
    35    31    32    1
@<TRIPOS>MOLECULE
*****
 32 35 0 0 0
SMALL
GASTEIGER

@<TRIPOS>ATOM
      1 C         140.6678  141.3603  168.3342 C.3     1  UNL1        0.0705
      2 C         140.2348  142.1451  169.5370 C.3     1  UNL1        0.0082
      3 C         141.2395  142.9456  170.3116 C.3     1  UNL1        0.0005
      4 C         142.6770  142.9612  169.8835 C.3     1  UNL1        0.0005
      5 C         143.1099  142.1765  168.6807 C.3     1  UNL1        0.0095
      6 C         142.1053  141.3760  167.9061 C.3     1  UNL1        0.0840
      7 C         142.5383  140.5912  166.7033 C.2     1  UNL1        0.2261
      8 O         142.6383  139.0964  166.7792 O.2     1  UNL1       -0.2748
      9 N         142.8712  141.3012  165.4246 N.am    1  UNL1       -0.2817
     10 H         142.8056  142.2822  165.3747 H       1  UNL1        0.1549
     11 C         143.3042  140.5164  164.2218 C.ar    1  UNL1        0.0847
     12 C         142.4932  139.4743  163.5103 C.ar    1  UNL1        0.1110
     13 N         143.3119  138.9497  162.3681 N.ar    1  UNL1       -0.2464
     14 C         142.8880  137.8928  161.3917 C.3     1  UNL1        0.1538
     15 N         144.6289  139.6677  162.3737 N.ar    1  UNL1       -0.1723
     16 C         144.6241  140.6359  163.5193 C.ar    1  UNL1        0.0938
     17 C         145.7429  141.5612  163.8963 C.3     1  UNL1        0.0553
     18 C         139.6632  140.5599  167.5596 C.2     1  UNL1        0.1731
     19 O         138.9050  139.4544  168.2328 O.2     1  UNL1       -0.2913
     20 C         138.9240  141.4746  163.2160 C.ar    1  UNL1        0.0194
     21 C         138.9376  140.0519  163.6910 C.ar    1  UNL1        0.0016
     22 C         139.1840  139.7470  165.1389 C.ar    1  UNL1        0.0029
     23 C         139.4168  140.8648  166.1117 C.ar    1  UNL1        0.0347
     24 C         139.4033  142.2875  165.6366 C.ar    1  UNL1        0.0029
     25 C         139.1569  142.5924  164.1887 C.ar    1  UNL1        0.0016
     26 C         138.0052  140.8982  158.0483 C.3     1  UNL1        0.0515
     27 C         138.2553  141.5145  159.3927 C.ar    1  UNL1        0.0535
     28 C         138.4629  140.7709  160.6787 C.ar    1  UNL1        0.0349
     29 C         138.6776  141.7795  161.7681 C.ar    1  UNL1        0.1018
     30 N         138.6027  143.1466  161.1553 N.ar    1  UNL1       -0.1730
     31 N         138.3417  142.9829  159.6873 N.ar    1  UNL1       -0.2798
     32 H         138.2442  143.7112  159.0321 H       1  UNL1        0.1886
@<TRIPOS>BOND
     1    26    27    1
     2    27    28   ar
     3    28    29   ar
     4    29    20    1
     5    20    21   ar
     6    21    22   ar
     7    22    23   ar
     8    23    18    1
     9    18    19    2
    10     1    18    1
    11     1     2    1
    12     2     3    1
    13     3     4    1
    14     4     5    1
    15     5     6    1
    16     6     7    1
    17     7     8    2
    18     7     9   am
    19     9    11    1
    20    11    12   ar
    21    12    13   ar
    22    13    14    1
    23    13    15   ar
    24    15    16   ar
    25    16    17    1
    26    23    24   ar
    27    24    25   ar
    28    29    30   ar
    29    30    31   ar
    30    31    27   ar
    31    25    20   ar
    32     6     1    1
    33    16    11   ar
    34     9    10    1
    35    31    32    1
@<TRIPOS>MOLECULE
*****
 32 35 0 0 0
SMALL
GASTEIGER

@<TRIPOS>ATOM
      1 C         139.3562  138.5299  164.1269 C.3     1  UNL1        0.0705
      2 C         138.8875  137.2384  164.7289 C.3     1  UNL1        0.0082
      3 C         138.1687  137.2419  166.0455 C.3     1  UNL1        0.0005
      4 C         137.9186  138.5368  166.7601 C.3     1  UNL1        0.0005
      5 C         138.3873  139.8283  166.1581 C.3     1  UNL1        0.0095
      6 C         139.1061  139.8249  164.8416 C.3     1  UNL1        0.0840
      7 C         139.5748  141.1164  164.2396 C.2     1  UNL1        0.2261
      8 O         141.0134  141.5228  164.3629 O.2     1  UNL1       -0.2748
      9 N         138.6049  142.0014  163.5145 N.am    1  UNL1       -0.2817
     10 H         137.6606  141.7347  163.4336 H       1  UNL1        0.1549
     11 C         139.0735  143.2929  162.9125 C.ar    1  UNL1        0.0847
     12 C         139.4867  143.5020  161.4858 C.ar    1  UNL1        0.1110
     13 N         139.8799  144.9404  161.3230 N.ar    1  UNL1       -0.2464
     14 C         140.3591  145.5856  160.0565 C.3     1  UNL1        0.1538
     15 N         139.7097  145.6203  162.6492 N.ar    1  UNL1       -0.1723
     16 C         139.2114  144.6021  163.6315 C.ar    1  UNL1        0.0938
     17 C         138.9047  144.8497  165.0788 C.3     1  UNL1        0.0553
     18 C         140.0749  138.5265  162.8104 C.2     1  UNL1        0.1731
     19 O         141.4198  137.8728  162.6918 O.2     1  UNL1       -0.2913
     20 C         138.1969  140.4775  159.2165 C.ar    1  UNL1        0.0194
     21 C         139.6870  140.4958  159.3867 C.ar    1  UNL1        0.0016
     22 C         140.3130  139.8455  160.5847 C.ar    1  UNL1        0.0029
     23 C         139.4488  139.1769  161.6124 C.ar    1  UNL1        0.0347
     24 C         137.9587  139.1586  161.4421 C.ar    1  UNL1        0.0029
     25 C         137.3327  139.8089  160.2442 C.ar    1  UNL1        0.0016
     26 C         137.1067  143.9289  155.3719 C.3     1  UNL1        0.0515
     27 C         137.0697  142.7143  156.2513 C.ar    1  UNL1        0.0535
     28 C         137.9508  142.4577  157.4378 C.ar    1  UNL1        0.0349
     29 C         137.5708  141.1279  158.0185 C.ar    1  UNL1        0.1018
     30 N         136.4548  140.5626  157.1908 N.ar    1  UNL1       -0.1730
     31 N         136.1451  141.5430  156.0987 N.ar    1  UNL1       -0.2798
     32 H         135.4560  141.4365  155.4037 H       1  UNL1        0.1886
@<TRIPOS>BOND
     1    26    27    1
     2    27    28   ar
     3    28    29   ar
     4    29    20    1
     5    20    21   ar
     6    21    22   ar
     7    22    23   ar
     8    23    18    1
     9    18    19    2
    10     1    18    1
    11     1     2    1
    12     2     3    1
    13     3     4    1
    14     4     5    1
    15     5     6    1
    16     6     7    1
    17     7     8    2
    18     7     9   am
    19     9    11    1
    20    11    12   ar
    21    12    13   ar
    22    13    14    1
    23    13    15   ar
    24    15    16   ar
    25    16    17    1
    26    23    24   ar
    27    24    25   ar
    28    29    30   ar
    29    30    31   ar
    30    31    27   ar
    31    25    20   ar
    32     6     1    1
    33    16    11   ar
    34     9    10    1
    35    31    32    1
@<TRIPOS>MOLECULE
*****
 32 35 0 0 0
SMALL
GASTEIGER

@<TRIPOS>ATOM
      1 C         143.7216  142.1855  163.2309 C.3     1  UNL1        0.0705
      2 C         144.4739  143.3489  162.6560 C.3     1  UNL1        0.0082
      3 C         144.0248  144.7502  162.9471 C.3     1  UNL1        0.0005
      4 C         142.8233  144.9880  163.8131 C.3     1  UNL1        0.0005
      5 C         142.0710  143.8246  164.3879 C.3     1  UNL1        0.0095
      6 C         142.5201  142.4234  164.0969 C.3     1  UNL1        0.0840
      7 C         141.7677  141.2600  164.6717 C.2     1  UNL1        0.2261
      8 O         142.3327  140.5036  165.8374 O.2     1  UNL1       -0.2748
      9 N         140.4504  140.8530  164.0809 N.am    1  UNL1       -0.2817
     10 H         140.0796  141.3494  163.3159 H       1  UNL1        0.1549
     11 C         139.6981  139.6896  164.6558 C.ar    1  UNL1        0.0847
     12 C         138.7828  139.7315  165.8435 C.ar    1  UNL1        0.1110
     13 N         138.2480  138.3478  166.0656 N.ar    1  UNL1       -0.2464
     14 C         137.2956  137.9339  167.1481 C.3     1  UNL1        0.1538
     15 N         138.8326  137.4507  165.0152 N.ar    1  UNL1       -0.1723
     16 C         139.7288  138.2799  164.1439 C.ar    1  UNL1        0.0938
     17 C         140.5174  137.7862  162.9673 C.3     1  UNL1        0.0553
     18 C         144.1707  140.7842  162.9398 C.2     1  UNL1        0.1731
     19 O         145.1965  140.1282  163.8158 O.2     1  UNL1       -0.2913
     20 C         142.4404  138.5485  159.4387 C.ar    1  UNL1        0.0194
     21 C         142.1241  140.0021  159.6307 C.ar    1  UNL1        0.0016
     22 C         142.7009  140.7473  160.7977 C.ar    1  UNL1        0.0029
     23 C         143.5939  140.0389  161.7727 C.ar    1  UNL1        0.0347
     24 C         143.9102  138.5853  161.5807 C.ar    1  UNL1        0.0029
     25 C         143.3335  137.8401  160.4137 C.ar    1  UNL1        0.0016
     26 C         141.9515  135.3322  155.2797 C.3     1  UNL1        0.0515
     27 C         141.6390  136.3248  156.3600 C.ar    1  UNL1        0.0535
     28 C         142.5970  136.8288  157.3983 C.ar    1  UNL1        0.0349
     29 C         141.8637  137.8032  158.2717 C.ar    1  UNL1        0.1018
     30 N         140.4524  137.9015  157.7731 N.ar    1  UNL1       -0.1730
     31 N         140.3135  136.9878  156.5916 N.ar    1  UNL1       -0.2798
     32 H         139.4959  136.8479  156.0613 H       1  UNL1        0.1886
@<TRIPOS>BOND
     1    26    27    1
     2    27    28   ar
     3    28    29   ar
     4    29    20    1
     5    20    21   ar
     6    21    22   ar
     7    22    23   ar
     8    23    18    1
     9    18    19    2
    10     1    18    1
    11     1     2    1
    12     2     3    1
    13     3     4    1
    14     4     5    1
    15     5     6    1
    16     6     7    1
    17     7     8    2
    18     7     9   am
    19     9    11    1
    20    11    12   ar
    21    12    13   ar
    22    13    14    1
    23    13    15   ar
    24    15    16   ar
    25    16    17    1
    26    23    24   ar
    27    24    25   ar
    28    29    30   ar
    29    30    31   ar
    30    31    27   ar
    31    25    20   ar
    32     6     1    1
    33    16    11   ar
    34     9    10    1
    35    31    32    1
@<TRIPOS>MOLECULE
*****
 32 35 0 0 0
SMALL
GASTEIGER

@<TRIPOS>ATOM
      1 C         138.8798  143.4902  162.4685 C.3     1  UNL1        0.0705
      2 C         138.5686  144.8913  162.9045 C.3     1  UNL1        0.0082
      3 C         139.2393  146.0525  162.2321 C.3     1  UNL1        0.0005
      4 C         140.2211  145.8125  161.1238 C.3     1  UNL1        0.0005
      5 C         140.5323  144.4113  160.6878 C.3     1  UNL1        0.0095
      6 C         139.8616  143.2503  161.3601 C.3     1  UNL1        0.0840
      7 C         140.1728  141.8492  160.9241 C.2     1  UNL1        0.2261
      8 O         139.1723  141.0749  160.1181 O.2     1  UNL1       -0.2748
      9 N         141.4843  141.2224  161.2941 N.am    1  UNL1       -0.2817
     10 H         142.1409  141.7306  161.8231 H       1  UNL1        0.1549
     11 C         141.7955  139.8213  160.8581 C.ar    1  UNL1        0.0847
     12 C         142.1979  139.3965  159.4769 C.ar    1  UNL1        0.1110
     13 N         142.4100  137.9116  159.4919 N.ar    1  UNL1       -0.2464
     14 C         142.8213  137.0679  158.3219 C.3     1  UNL1        0.1538
     15 N         142.1386  137.4187  160.8824 N.ar    1  UNL1       -0.1723
     16 C         141.7588  138.5989  161.7267 C.ar    1  UNL1        0.0938
     17 C         141.4045  138.5630  163.1838 C.3     1  UNL1        0.0553
     18 C         138.2091  142.3292  163.1408 C.2     1  UNL1        0.1731
     19 O         136.9901  141.7082  162.5257 O.2     1  UNL1       -0.2913
     20 C         139.8542  140.7088  167.0032 C.ar    1  UNL1        0.0194
     21 C         140.2543  142.0756  166.5324 C.ar    1  UNL1        0.0016
     22 C         139.7060  142.6157  165.2450 C.ar    1  UNL1        0.0029
     23 C         138.7575  141.7890  164.4283 C.ar    1  UNL1        0.0347
     24 C         138.3574  140.4222  164.8991 C.ar    1  UNL1        0.0029
     25 C         138.9057  139.8821  166.1865 C.ar    1  UNL1        0.0016
     26 C         143.1828  138.8498  170.6564 C.3     1  UNL1        0.0515
     27 C         141.9326  139.3141  169.9698 C.ar    1  UNL1        0.0535
     28 C         141.8351  139.8135  168.5588 C.ar    1  UNL1        0.0349
     29 C         140.4026  140.1686  168.2907 C.ar    1  UNL1        0.1018
     30 N         139.6148  139.8887  169.5361 N.ar    1  UNL1       -0.1730
     31 N         140.5603  139.3606  170.5738 N.ar    1  UNL1       -0.2798
     32 H         140.3221  139.0918  171.4905 H       1  UNL1        0.1886
@<TRIPOS>BOND
     1    26    27    1
     2    27    28   ar
     3    28    29   ar
     4    29    20    1
     5    20    21   ar
     6    21    22   ar
     7    22    23   ar
     8    23    18    1
     9    18    19    2
    10     1    18    1
    11     1     2    1
    12     2     3    1
    13     3     4    1
    14     4     5    1
    15     5     6    1
    16     6     7    1
    17     7     8    2
    18     7     9   am
    19     9    11    1
    20    11    12   ar
    21    12    13   ar
    22    13    14    1
    23    13    15   ar
    24    15    16   ar
    25    16    17    1
    26    23    24   ar
    27    24    25   ar
    28    29    30   ar
    29    30    31   ar
    30    31    27   ar
    31    25    20   ar
    32     6     1    1
    33    16    11   ar
    34     9    10    1
    35    31    32    1
@<TRIPOS>MOLECULE
*****
 32 35 0 0 0
SMALL
GASTEIGER

@<TRIPOS>ATOM
      1 C         139.6841  138.6304  164.4666 C.3     1  UNL1        0.0705
      2 C         138.5452  138.0603  165.2589 C.3     1  UNL1        0.0082
      3 C         138.2614  138.5730  166.6398 C.3     1  UNL1        0.0005
      4 C         139.1165  139.6559  167.2282 C.3     1  UNL1        0.0005
      5 C         140.2554  140.2260  166.4358 C.3     1  UNL1        0.0095
      6 C         140.5392  139.7133  165.0551 C.3     1  UNL1        0.0840
      7 C         141.6782  140.2834  164.2628 C.2     1  UNL1        0.2261
      8 O         143.0289  139.6331  164.3166 O.2     1  UNL1       -0.2748
      9 N         141.4665  141.5037  163.4166 N.am    1  UNL1       -0.2817
     10 H         140.5800  141.9305  163.3813 H       1  UNL1        0.1549
     11 C         142.6054  142.0738  162.6243 C.ar    1  UNL1        0.0847
     12 C         142.8675  141.8428  161.1656 C.ar    1  UNL1        0.1110
     13 N         144.1063  142.6013  160.7913 N.ar    1  UNL1       -0.2464
     14 C         144.7317  142.6511  159.4288 C.3     1  UNL1        0.1538
     15 N         144.6099  143.3011  162.0187 N.ar    1  UNL1       -0.1723
     16 C         143.6823  142.9751  163.1516 C.ar    1  UNL1        0.0938
     17 C         143.8093  143.4645  164.5638 C.3     1  UNL1        0.0553
     18 C         139.9680  138.1177  163.0858 C.2     1  UNL1        0.1731
     19 O         140.8333  136.9069  162.8986 O.2     1  UNL1       -0.2913
     20 C         138.2235  140.2121  159.5053 C.ar    1  UNL1        0.0194
     21 C         137.3271  139.7575  160.6187 C.ar    1  UNL1        0.0016
     22 C         137.9086  139.0594  161.8122 C.ar    1  UNL1        0.0029
     23 C         139.3865  138.8159  161.8923 C.ar    1  UNL1        0.0347
     24 C         140.2829  139.2704  160.7789 C.ar    1  UNL1        0.0029
     25 C         139.7014  139.9685  159.5854 C.ar    1  UNL1        0.0016
     26 C         137.3442  143.7684  155.7026 C.3     1  UNL1        0.0515
     27 C         137.2379  142.5449  156.5638 C.ar    1  UNL1        0.0535
     28 C         138.0940  142.2272  157.7538 C.ar    1  UNL1        0.0349
     29 C         137.6420  140.9102  158.3117 C.ar    1  UNL1        0.1018
     30 N         136.5065  140.4140  157.4666 N.ar    1  UNL1       -0.1730
     31 N         136.2567  141.4242  156.3863 N.ar    1  UNL1       -0.2798
     32 H         135.5695  141.3626  155.6841 H       1  UNL1        0.1886
@<TRIPOS>BOND
     1    26    27    1
     2    27    28   ar
     3    28    29   ar
     4    29    20    1
     5    20    21   ar
     6    21    22   ar
     7    22    23   ar
     8    23    18    1
     9    18    19    2
    10     1    18    1
    11     1     2    1
    12     2     3    1
    13     3     4    1
    14     4     5    1
    15     5     6    1
    16     6     7    1
    17     7     8    2
    18     7     9   am
    19     9    11    1
    20    11    12   ar
    21    12    13   ar
    22    13    14    1
    23    13    15   ar
    24    15    16   ar
    25    16    17    1
    26    23    24   ar
    27    24    25   ar
    28    29    30   ar
    29    30    31   ar
    30    31    27   ar
    31    25    20   ar
    32     6     1    1
    33    16    11   ar
    34     9    10    1
    35    31    32    1
