@<TRIPOS>MOLECULE
*****
 33 37 0 0 0
SMALL
GASTEIGER

@<TRIPOS>ATOM
      1 N         139.8023  144.2808  161.9553 N.ar    1  UNL1       -0.2411
      2 C         140.4802  144.2392  163.2927 C.ar    1  UNL1        0.2660
      3 O         141.4367  145.3268  163.6829 O.2     1  UNL1       -0.2668
      4 C         140.2016  143.1100  164.2400 C.ar    1  UNL1        0.0735
      5 C         140.8795  143.0684  165.5774 C.ar    1  UNL1        0.0261
      6 C         140.6009  141.9392  166.5246 C.ar    1  UNL1        0.1222
      7 C         139.6444  140.8516  166.1344 C.ar    1  UNL1        0.0214
      8 C         138.9665  140.8932  164.7970 C.ar    1  UNL1        0.0188
      9 C         139.2451  142.0224  163.8498 C.ar    1  UNL1        0.0685
     10 N         138.5672  142.0640  162.5123 N.ar    1  UNL1       -0.2810
     11 C         138.8458  143.1932  161.5651 C.ar    1  UNL1        0.3341
     12 O         138.1679  143.2348  160.2276 O.2     1  UNL1       -0.2462
     13 S         141.2788  141.8975  167.8621 S.O2    1  UNL1        0.0601
     14 O         142.5580  142.3571  167.2280 O.2     1  UNL1       -0.1530
     15 O         139.9995  141.4379  168.4962 O.2     1  UNL1       -0.1530
     16 N         141.9567  141.8559  169.1995 N.3     1  UNL1       -0.1820
     17 H         141.4063  142.4422  169.8270 H       1  UNL1        0.1487
     18 C         142.1578  140.5437  169.8979 C.3     1  UNL1        0.0622
     19 C         141.7988  140.9374  171.3001 C.3     1  UNL1        0.0175
     20 C         142.4835  139.0949  170.1095 C.3     1  UNL1        0.0175
     21 C         142.5865  139.6945  168.7383 C.3     1  UNL1        0.0175
     22 C         140.0809  145.4100  161.0080 C.3     1  UNL1        0.1807
     23 C         141.8988  145.3712  156.0508 C.3     1  UNL1        0.0557
     24 C         141.7936  145.1687  157.5333 C.ar    1  UNL1        0.1008
     25 C         140.6417  145.5828  158.4002 C.ar    1  UNL1        0.0556
     26 C         140.9580  145.1865  159.8119 C.ar    1  UNL1        0.1771
     27 O         142.3055  144.5275  159.8175 O.2     1  UNL1       -0.3561
     28 N         142.8220  144.5165  158.4093 N.ar    1  UNL1       -0.0817
     29 C         137.6107  140.9764  162.1221 C.3     1  UNL1        0.1155
     30 C         138.1302  139.6889  161.5540 C.3     1  UNL1        0.0819
     31 C         138.8454  139.2972  160.2951 C.3     1  UNL1        0.1465
     32 O         138.8648  137.8682  160.7507 O.3     1  UNL1       -0.3535
     33 C         138.1495  138.2600  162.0097 C.3     1  UNL1        0.1465
@<TRIPOS>BOND
     1    23    24    1
     2    24    25   ar
     3    25    26   ar
     4    26    22    1
     5    22     1    1
     6     1     2   ar
     7     2     3    2
     8     2     4   ar
     9     4     5   ar
    10     5     6   ar
    11     6    13    1
    12    13    14    2
    13    13    15    2
    14    13    16    1
    15    16    18    1
    16    18    19    1
    17    18    20    1
    18    20    21    1
    19     6     7   ar
    20     7     8   ar
    21     8     9   ar
    22     9    10   ar
    23    10    29    1
    24    29    30    1
    25    30    31    1
    26    31    32    1
    27    32    33    1
    28    10    11   ar
    29    11    12    2
    30    26    27   ar
    31    27    28   ar
    32    28    24   ar
    33    11     1   ar
    34     9     4   ar
    35    33    30    1
    36    21    18    1
    37    16    17    1
@<TRIPOS>MOLECULE
*****
 33 37 0 0 0
SMALL
GASTEIGER

@<TRIPOS>ATOM
      1 N         143.6209  141.3197  161.7323 N.ar    1  UNL1       -0.2411
      2 C         143.6651  141.8916  163.1182 C.ar    1  UNL1        0.2660
      3 O         144.3572  143.1987  163.3685 O.2     1  UNL1       -0.2668
      4 C         143.0172  141.1565  164.2540 C.ar    1  UNL1        0.0735
      5 C         143.0614  141.7284  165.6399 C.ar    1  UNL1        0.0261
      6 C         142.4135  140.9933  166.7756 C.ar    1  UNL1        0.1222
      7 C         141.7214  139.6863  166.5253 C.ar    1  UNL1        0.0214
      8 C         141.6772  139.1143  165.1394 C.ar    1  UNL1        0.0188
      9 C         142.3251  139.8495  164.0037 C.ar    1  UNL1        0.0685
     10 N         142.2809  139.2776  162.6177 N.ar    1  UNL1       -0.2810
     11 C         142.9288  140.0127  161.4820 C.ar    1  UNL1        0.3341
     12 O         142.8846  139.4408  160.0959 O.2     1  UNL1       -0.2462
     13 S         142.4577  141.5652  168.1616 S.O2    1  UNL1        0.0601
     14 O         143.3989  142.6339  167.6906 O.2     1  UNL1       -0.1530
     15 O         141.5165  140.4965  168.6327 O.2     1  UNL1       -0.1530
     16 N         142.5020  142.1371  169.5476 N.3     1  UNL1       -0.1820
     17 H         143.0084  143.0204  169.4856 H       1  UNL1        0.1487
     18 C         141.2257  142.4204  170.2832 C.3     1  UNL1        0.0622
     19 C         141.3984  141.5114  171.4638 C.3     1  UNL1        0.0175
     20 C         139.8895  143.0193  170.6087 C.3     1  UNL1        0.0175
     21 C         140.6099  143.4277  169.3579 C.3     1  UNL1        0.0175
     22 C         144.2688  142.0548  160.5965 C.3     1  UNL1        0.1807
     23 C         142.1733  144.7983  156.6012 C.3     1  UNL1        0.0557
     24 C         142.5251  144.3347  157.9837 C.ar    1  UNL1        0.1008
     25 C         143.4144  143.1761  158.3255 C.ar    1  UNL1        0.0556
     26 C         143.4883  143.0737  159.8201 C.ar    1  UNL1        0.1771
     27 O         142.6447  144.1690  160.4021 O.2     1  UNL1       -0.3561
     28 N         142.0494  144.9483  159.2672 N.ar    1  UNL1       -0.0817
     29 C         141.5888  137.9705  162.3674 C.3     1  UNL1        0.1155
     30 C         140.1085  137.9397  162.1266 C.3     1  UNL1        0.0819
     31 C         138.9004  137.6840  162.9781 C.3     1  UNL1        0.1465
     32 O         138.0152  137.8962  161.7859 O.3     1  UNL1       -0.3535
     33 C         139.2233  138.1520  160.9344 C.3     1  UNL1        0.1465
@<TRIPOS>BOND
     1    23    24    1
     2    24    25   ar
     3    25    26   ar
     4    26    22    1
     5    22     1    1
     6     1     2   ar
     7     2     3    2
     8     2     4   ar
     9     4     5   ar
    10     5     6   ar
    11     6    13    1
    12    13    14    2
    13    13    15    2
    14    13    16    1
    15    16    18    1
    16    18    19    1
    17    18    20    1
    18    20    21    1
    19     6     7   ar
    20     7     8   ar
    21     8     9   ar
    22     9    10   ar
    23    10    29    1
    24    29    30    1
    25    30    31    1
    26    31    32    1
    27    32    33    1
    28    10    11   ar
    29    11    12    2
    30    26    27   ar
    31    27    28   ar
    32    28    24   ar
    33    11     1   ar
    34     9     4   ar
    35    33    30    1
    36    21    18    1
    37    16    17    1
@<TRIPOS>MOLECULE
*****
 33 37 0 0 0
SMALL
GASTEIGER

@<TRIPOS>ATOM
      1 N         139.2080  141.4609  162.5841 N.ar    1  UNL1       -0.2411
      2 C         139.5455  141.6761  164.0297 C.ar    1  UNL1        0.2660
      3 O         139.0298  142.8877  164.7480 O.2     1  UNL1       -0.2668
      4 C         140.3987  140.6795  164.7570 C.ar    1  UNL1        0.0735
      5 C         140.7363  140.8947  166.2026 C.ar    1  UNL1        0.0261
      6 C         141.5894  139.8982  166.9299 C.ar    1  UNL1        0.1222
      7 C         142.1051  138.6865  166.2116 C.ar    1  UNL1        0.0214
      8 C         141.7676  138.4714  164.7660 C.ar    1  UNL1        0.0188
      9 C         140.9144  139.4679  164.0387 C.ar    1  UNL1        0.0685
     10 N         140.5768  139.2528  162.5931 N.ar    1  UNL1       -0.2810
     11 C         139.7236  140.2493  161.8658 C.ar    1  UNL1        0.3341
     12 O         139.3861  140.0342  160.4201 O.2     1  UNL1       -0.2462
     13 S         141.9270  140.1133  168.3755 S.O2    1  UNL1        0.0601
     14 O         140.7669  141.0550  168.5063 O.2     1  UNL1       -0.1530
     15 O         143.0872  139.1715  168.2448 O.2     1  UNL1       -0.1530
     16 N         142.2645  140.3284  169.8211 N.3     1  UNL1       -0.1820
     17 H         143.1456  139.8441  169.9930 H       1  UNL1        0.1487
     18 C         142.4247  141.7211  170.3547 C.3     1  UNL1        0.0622
     19 C         141.3247  141.7375  171.3743 C.3     1  UNL1        0.0175
     20 C         142.9670  143.1081  170.5342 C.3     1  UNL1        0.0175
     21 C         143.5804  142.1883  169.5204 C.3     1  UNL1        0.0175
     22 C         138.3547  142.4575  161.8568 C.3     1  UNL1        0.1807
     23 C         141.0879  145.5585  158.5714 C.3     1  UNL1        0.0557
     24 C         140.2397  145.0901  159.7165 C.ar    1  UNL1        0.1008
     25 C         139.8203  143.6746  159.9818 C.ar    1  UNL1        0.0556
     26 C         138.9834  143.6648  161.2266 C.ar    1  UNL1        0.1771
     27 O         138.8856  145.0742  161.7306 O.2     1  UNL1       -0.3561
     28 N         139.6621  145.9552  160.7973 N.ar    1  UNL1       -0.0817
     29 C         141.0925  138.0411  161.8747 C.3     1  UNL1        0.1155
     30 C         142.3896  138.1095  161.1244 C.3     1  UNL1        0.0819
     31 C         142.7741  138.2385  159.6802 C.3     1  UNL1        0.1465
     32 O         144.2240  138.2062  160.0634 O.3     1  UNL1       -0.3535
     33 C         143.8395  138.0772  161.5075 C.3     1  UNL1        0.1465
@<TRIPOS>BOND
     1    23    24    1
     2    24    25   ar
     3    25    26   ar
     4    26    22    1
     5    22     1    1
     6     1     2   ar
     7     2     3    2
     8     2     4   ar
     9     4     5   ar
    10     5     6   ar
    11     6    13    1
    12    13    14    2
    13    13    15    2
    14    13    16    1
    15    16    18    1
    16    18    19    1
    17    18    20    1
    18    20    21    1
    19     6     7   ar
    20     7     8   ar
    21     8     9   ar
    22     9    10   ar
    23    10    29    1
    24    29    30    1
    25    30    31    1
    26    31    32    1
    27    32    33    1
    28    10    11   ar
    29    11    12    2
    30    26    27   ar
    31    27    28   ar
    32    28    24   ar
    33    11     1   ar
    34     9     4   ar
    35    33    30    1
    36    21    18    1
    37    16    17    1
@<TRIPOS>MOLECULE
*****
 33 37 0 0 0
SMALL
GASTEIGER

@<TRIPOS>ATOM
      1 N         138.9818  139.8290  162.0609 N.ar    1  UNL1       -0.2411
      2 C         139.2101  139.5972  160.5967 C.ar    1  UNL1        0.2660
      3 O         138.1954  140.0652  159.5961 O.2     1  UNL1       -0.2668
      4 C         140.4532  138.8973  160.1330 C.ar    1  UNL1        0.0735
      5 C         140.6815  138.6654  158.6687 C.ar    1  UNL1        0.0261
      6 C         141.9245  137.9656  158.2051 C.ar    1  UNL1        0.1222
      7 C         142.9393  137.4975  159.2057 C.ar    1  UNL1        0.0214
      8 C         142.7110  137.7294  160.6699 C.ar    1  UNL1        0.0188
      9 C         141.4680  138.4292  161.1336 C.ar    1  UNL1        0.0685
     10 N         141.2396  138.6611  162.5979 N.ar    1  UNL1       -0.2810
     11 C         139.9966  139.3610  163.0615 C.ar    1  UNL1        0.3341
     12 O         139.7683  139.5928  164.5259 O.2     1  UNL1       -0.2462
     13 S         142.1528  137.7337  156.7407 S.O2    1  UNL1        0.0601
     14 O         143.5195  138.3408  156.8577 O.2     1  UNL1       -0.1530
     15 O         140.7862  137.1266  156.6237 O.2     1  UNL1       -0.1530
     16 N         142.3812  137.5019  155.2765 N.3     1  UNL1       -0.1820
     17 H         143.2491  137.9799  155.0345 H       1  UNL1        0.1487
     18 C         142.4954  136.1029  154.7475 C.3     1  UNL1        0.0622
     19 C         141.5837  136.1982  153.5601 C.3     1  UNL1        0.0175
     20 C         142.9262  134.6708  154.6308 C.3     1  UNL1        0.0175
     21 C         143.4467  135.5218  155.7511 C.3     1  UNL1        0.0175
     22 C         137.7388  140.5289  162.5247 C.3     1  UNL1        0.1807
     23 C         138.2182  144.9606  165.3550 C.3     1  UNL1        0.0557
     24 C         138.0129  144.0152  164.2086 C.ar    1  UNL1        0.1008
     25 C         138.0467  142.5174  164.2841 C.ar    1  UNL1        0.0556
     26 C         137.7926  141.9781  162.9077 C.ar    1  UNL1        0.1771
     27 O         137.6017  143.1426  161.9815 O.2     1  UNL1       -0.3561
     28 N         137.7379  144.4015  162.7855 N.ar    1  UNL1       -0.0817
     29 C         142.2544  138.1931  163.5985 C.3     1  UNL1        0.1155
     30 C         143.4672  139.0285  163.8836 C.3     1  UNL1        0.0819
     31 C         144.1836  140.1365  163.1701 C.3     1  UNL1        0.1465
     32 O         145.1823  140.2099  164.2869 O.3     1  UNL1       -0.3535
     33 C         144.4659  139.1019  165.0004 C.3     1  UNL1        0.1465
@<TRIPOS>BOND
     1    23    24    1
     2    24    25   ar
     3    25    26   ar
     4    26    22    1
     5    22     1    1
     6     1     2   ar
     7     2     3    2
     8     2     4   ar
     9     4     5   ar
    10     5     6   ar
    11     6    13    1
    12    13    14    2
    13    13    15    2
    14    13    16    1
    15    16    18    1
    16    18    19    1
    17    18    20    1
    18    20    21    1
    19     6     7   ar
    20     7     8   ar
    21     8     9   ar
    22     9    10   ar
    23    10    29    1
    24    29    30    1
    25    30    31    1
    26    31    32    1
    27    32    33    1
    28    10    11   ar
    29    11    12    2
    30    26    27   ar
    31    27    28   ar
    32    28    24   ar
    33    11     1   ar
    34     9     4   ar
    35    33    30    1
    36    21    18    1
    37    16    17    1
@<TRIPOS>MOLECULE
*****
 33 37 0 0 0
SMALL
GASTEIGER

@<TRIPOS>ATOM
      1 N         138.1407  140.8697  161.5915 N.ar    1  UNL1       -0.2411
      2 C         138.4087  140.3003  162.9530 C.ar    1  UNL1        0.2660
      3 O         138.0728  138.8681  163.2465 O.2     1  UNL1       -0.2668
      4 C         139.0126  141.1630  164.0213 C.ar    1  UNL1        0.0735
      5 C         139.2806  140.5936  165.3828 C.ar    1  UNL1        0.0261
      6 C         139.8845  141.4563  166.4509 C.ar    1  UNL1        0.1222
      7 C         140.2204  142.8885  166.1575 C.ar    1  UNL1        0.0214
      8 C         139.9524  143.4579  164.7960 C.ar    1  UNL1        0.0188
      9 C         139.3485  142.5952  163.7279 C.ar    1  UNL1        0.0685
     10 N         139.0805  143.1646  162.3662 N.ar    1  UNL1       -0.2810
     11 C         138.4766  142.3019  161.2981 C.ar    1  UNL1        0.3341
     12 O         138.2085  142.8713  159.9364 O.2     1  UNL1       -0.2462
     13 S         140.1526  140.8869  167.8126 S.O2    1  UNL1        0.0601
     14 O         139.3875  139.6499  167.4459 O.2     1  UNL1       -0.1530
     15 O         140.9177  142.1238  168.1793 O.2     1  UNL1       -0.1530
     16 N         140.4206  140.3174  169.1741 N.3     1  UNL1       -0.1820
     17 H         140.0043  139.3864  169.1911 H       1  UNL1        0.1487
     18 C         141.8318  140.1697  169.6609 C.3     1  UNL1        0.0622
     19 C         142.4473  139.4917  168.4728 C.3     1  UNL1        0.0175
     20 C         143.0291  140.2574  170.5601 C.3     1  UNL1        0.0175
     21 C         141.7062  140.7964  171.0178 C.3     1  UNL1        0.0175
     22 C         137.5367  140.0070  160.5233 C.3     1  UNL1        0.1807
     23 C         141.4525  137.9471  157.6416 C.3     1  UNL1        0.0557
     24 C         140.1690  138.6183  158.0318 C.ar    1  UNL1        0.1008
     25 C         139.6980  138.8736  159.4328 C.ar    1  UNL1        0.0556
     26 C         138.3692  139.5651  159.3563 C.ar    1  UNL1        0.1771
     27 O         138.0189  139.7373  157.9080 O.2     1  UNL1       -0.3561
     28 N         139.1312  139.1521  157.0893 N.ar    1  UNL1       -0.0817
     29 C         139.4164  144.5968  162.0728 C.3     1  UNL1        0.1155
     30 C         140.4090  144.9294  160.9985 C.3     1  UNL1        0.0819
     31 C         141.8326  144.5508  160.7156 C.3     1  UNL1        0.1465
     32 O         141.8127  145.3998  159.4792 O.3     1  UNL1       -0.3535
     33 C         140.3891  145.7784  159.7620 C.3     1  UNL1        0.1465
@<TRIPOS>BOND
     1    23    24    1
     2    24    25   ar
     3    25    26   ar
     4    26    22    1
     5    22     1    1
     6     1     2   ar
     7     2     3    2
     8     2     4   ar
     9     4     5   ar
    10     5     6   ar
    11     6    13    1
    12    13    14    2
    13    13    15    2
    14    13    16    1
    15    16    18    1
    16    18    19    1
    17    18    20    1
    18    20    21    1
    19     6     7   ar
    20     7     8   ar
    21     8     9   ar
    22     9    10   ar
    23    10    29    1
    24    29    30    1
    25    30    31    1
    26    31    32    1
    27    32    33    1
    28    10    11   ar
    29    11    12    2
    30    26    27   ar
    31    27    28   ar
    32    28    24   ar
    33    11     1   ar
    34     9     4   ar
    35    33    30    1
    36    21    18    1
    37    16    17    1
@<TRIPOS>MOLECULE
*****
 33 37 0 0 0
SMALL
GASTEIGER

@<TRIPOS>ATOM
      1 N         143.6127  141.4173  160.9548 N.ar    1  UNL1       -0.2411
      2 C         143.6155  140.5911  162.2067 C.ar    1  UNL1        0.2660
      3 O         144.0732  139.1634  162.1620 O.2     1  UNL1       -0.2668
      4 C         143.1606  141.1927  163.5033 C.ar    1  UNL1        0.0735
      5 C         143.1634  140.3665  164.7553 C.ar    1  UNL1        0.0261
      6 C         142.7085  140.9680  166.0518 C.ar    1  UNL1        0.1222
      7 C         142.2508  142.3958  166.0965 C.ar    1  UNL1        0.0214
      8 C         142.2479  143.2220  164.8446 C.ar    1  UNL1        0.0188
      9 C         142.7029  142.6204  163.5480 C.ar    1  UNL1        0.0685
     10 N         142.7000  143.4466  162.2960 N.ar    1  UNL1       -0.2810
     11 C         143.1549  142.8451  160.9994 C.ar    1  UNL1        0.3341
     12 O         143.1521  143.6713  159.7474 O.2     1  UNL1       -0.2462
     13 S         142.7113  140.1418  167.3038 S.O2    1  UNL1        0.0601
     14 O         142.3921  138.9182  166.4970 O.2     1  UNL1       -0.1530
     15 O         143.0306  141.3653  168.1106 O.2     1  UNL1       -0.1530
     16 N         142.7141  139.3156  168.5557 N.3     1  UNL1       -0.1820
     17 H         143.6805  139.2751  168.8797 H       1  UNL1        0.1487
     18 C         141.8805  139.7322  169.7312 C.3     1  UNL1        0.0622
     19 C         142.9317  139.7547  170.8010 C.3     1  UNL1        0.0175
     20 C         140.6819  140.1409  170.5351 C.3     1  UNL1        0.0175
     21 C         140.5399  139.8542  169.0695 C.3     1  UNL1        0.0175
     22 C         144.0676  140.8158  159.6581 C.3     1  UNL1        0.1807
     23 C         139.7779  138.2267  157.9922 C.3     1  UNL1        0.0557
     24 C         141.1986  138.6822  158.1477 C.ar    1  UNL1        0.1008
     25 C         141.6867  139.7415  159.0909 C.ar    1  UNL1        0.0556
     26 C         143.1704  139.8722  158.9134 C.ar    1  UNL1        0.1771
     27 O         143.5993  138.8937  157.8605 O.2     1  UNL1       -0.3561
     28 N         142.3807  138.1582  157.3872 N.ar    1  UNL1       -0.0817
     29 C         142.2423  144.8744  162.3407 C.3     1  UNL1        0.1155
     30 C         140.7904  145.2027  162.1553 C.3     1  UNL1        0.0819
     31 C         139.5405  144.9715  162.9518 C.3     1  UNL1        0.1465
     32 O         138.7372  145.6669  161.8930 O.3     1  UNL1       -0.3535
     33 C         139.9870  145.8981  161.0965 C.3     1  UNL1        0.1465
@<TRIPOS>BOND
     1    23    24    1
     2    24    25   ar
     3    25    26   ar
     4    26    22    1
     5    22     1    1
     6     1     2   ar
     7     2     3    2
     8     2     4   ar
     9     4     5   ar
    10     5     6   ar
    11     6    13    1
    12    13    14    2
    13    13    15    2
    14    13    16    1
    15    16    18    1
    16    18    19    1
    17    18    20    1
    18    20    21    1
    19     6     7   ar
    20     7     8   ar
    21     8     9   ar
    22     9    10   ar
    23    10    29    1
    24    29    30    1
    25    30    31    1
    26    31    32    1
    27    32    33    1
    28    10    11   ar
    29    11    12    2
    30    26    27   ar
    31    27    28   ar
    32    28    24   ar
    33    11     1   ar
    34     9     4   ar
    35    33    30    1
    36    21    18    1
    37    16    17    1
@<TRIPOS>MOLECULE
*****
 33 37 0 0 0
SMALL
GASTEIGER

@<TRIPOS>ATOM
      1 N         141.6204  142.5040  165.1658 N.ar    1  UNL1       -0.2411
      2 C         141.0560  143.4349  164.1339 C.ar    1  UNL1        0.2660
      3 O         139.9823  144.4117  164.5122 O.2     1  UNL1       -0.2668
      4 C         141.5653  143.3890  162.7237 C.ar    1  UNL1        0.0735
      5 C         141.0009  144.3200  161.6919 C.ar    1  UNL1        0.0261
      6 C         141.5102  144.2741  160.2817 C.ar    1  UNL1        0.1222
      7 C         142.5839  143.2973  159.9035 C.ar    1  UNL1        0.0214
      8 C         143.1483  142.3664  160.9354 C.ar    1  UNL1        0.0188
      9 C         142.6390  142.4122  162.3455 C.ar    1  UNL1        0.0685
     10 N         143.2034  141.4813  163.3775 N.ar    1  UNL1       -0.2810
     11 C         142.6941  141.5272  164.7876 C.ar    1  UNL1        0.3341
     12 O         143.2585  140.5962  165.8195 O.2     1  UNL1       -0.2462
     13 S         140.9458  145.2050  159.2498 S.O2    1  UNL1        0.0601
     14 O         139.6284  145.2014  159.9671 O.2     1  UNL1       -0.1530
     15 O         142.2631  145.2086  158.5325 O.2     1  UNL1       -0.1530
     16 N         140.3814  146.1359  158.2179 N.3     1  UNL1       -0.1820
     17 H         141.1075  146.8219  158.0115 H       1  UNL1        0.1487
     18 C         139.9078  145.5970  156.9005 C.3     1  UNL1        0.0622
     19 C         139.8352  146.8695  156.1096 C.3     1  UNL1        0.0175
     20 C         139.4594  144.6163  155.8579 C.3     1  UNL1        0.0175
     21 C         139.8159  144.1375  157.2341 C.3     1  UNL1        0.0175
     22 C         141.1111  142.5498  166.5760 C.3     1  UNL1        0.1807
     23 C         137.7867  138.4565  166.8475 C.3     1  UNL1        0.0557
     24 C         138.7467  139.5427  167.2331 C.ar    1  UNL1        0.1008
     25 C         139.3932  140.5210  166.2978 C.ar    1  UNL1        0.0556
     26 C         140.2748  141.4242  167.1083 C.ar    1  UNL1        0.1771
     27 O         140.1731  141.0041  168.5447 O.2     1  UNL1       -0.3561
     28 N         139.2287  139.8412  168.6219 N.ar    1  UNL1       -0.0817
     29 C         144.2771  140.5045  162.9992 C.3     1  UNL1        0.1155
     30 C         143.9346  139.2911  162.1864 C.3     1  UNL1        0.0819
     31 C         144.2416  138.8260  160.7938 C.3     1  UNL1        0.1465
     32 O         143.4504  137.5751  161.0371 O.3     1  UNL1       -0.3535
     33 C         143.1434  138.0402  162.4298 C.3     1  UNL1        0.1465
@<TRIPOS>BOND
     1    23    24    1
     2    24    25   ar
     3    25    26   ar
     4    26    22    1
     5    22     1    1
     6     1     2   ar
     7     2     3    2
     8     2     4   ar
     9     4     5   ar
    10     5     6   ar
    11     6    13    1
    12    13    14    2
    13    13    15    2
    14    13    16    1
    15    16    18    1
    16    18    19    1
    17    18    20    1
    18    20    21    1
    19     6     7   ar
    20     7     8   ar
    21     8     9   ar
    22     9    10   ar
    23    10    29    1
    24    29    30    1
    25    30    31    1
    26    31    32    1
    27    32    33    1
    28    10    11   ar
    29    11    12    2
    30    26    27   ar
    31    27    28   ar
    32    28    24   ar
    33    11     1   ar
    34     9     4   ar
    35    33    30    1
    36    21    18    1
    37    16    17    1
@<TRIPOS>MOLECULE
*****
 33 37 0 0 0
SMALL
GASTEIGER

@<TRIPOS>ATOM
      1 N         139.7016  140.7021  164.7853 N.ar    1  UNL1       -0.2411
      2 C         140.1278  139.7064  163.7476 C.ar    1  UNL1        0.2660
      3 O         139.7731  138.2578  163.9077 O.2     1  UNL1       -0.2668
      4 C         140.9087  140.1594  162.5496 C.ar    1  UNL1        0.0735
      5 C         141.3350  139.1637  161.5119 C.ar    1  UNL1        0.0261
      6 C         142.1158  139.6167  160.3140 C.ar    1  UNL1        0.1222
      7 C         142.4705  141.0653  160.1538 C.ar    1  UNL1        0.0214
      8 C         142.0443  142.0610  161.1916 C.ar    1  UNL1        0.0188
      9 C         141.2634  141.6080  162.3894 C.ar    1  UNL1        0.0685
     10 N         140.8371  142.6037  163.4273 N.ar    1  UNL1       -0.2810
     11 C         140.0562  142.1507  164.6251 C.ar    1  UNL1        0.3341
     12 O         139.6299  143.1464  165.6630 O.2     1  UNL1       -0.2462
     13 S         142.5421  138.6210  159.2762 S.O2    1  UNL1        0.0601
     14 O         141.1049  138.2871  159.0063 O.2     1  UNL1       -0.1530
     15 O         143.9793  138.9549  159.5461 O.2     1  UNL1       -0.1530
     16 N         142.9683  137.6253  158.2384 N.3     1  UNL1       -0.1820
     17 H         142.5363  136.7359  158.4888 H       1  UNL1        0.1487
     18 C         142.6530  137.8680  156.7921 C.3     1  UNL1        0.0622
     19 C         143.1133  139.2895  156.6602 C.3     1  UNL1        0.0175
     20 C         142.1780  137.6169  155.3916 C.3     1  UNL1        0.0175
     21 C         142.0834  136.5307  156.4218 C.3     1  UNL1        0.0175
     22 C         138.9206  140.2491  165.9833 C.3     1  UNL1        0.1807
     23 C         142.6453  140.0637  169.7213 C.3     1  UNL1        0.0557
     24 C         141.3170  140.0055  169.0268 C.ar    1  UNL1        0.1008
     25 C         141.0733  140.2541  167.5678 C.ar    1  UNL1        0.0556
     26 C         139.6050  140.0907  167.3086 C.ar    1  UNL1        0.1771
     27 O         138.9411  139.7412  168.6075 O.2     1  UNL1       -0.3561
     28 N         139.9991  139.6885  169.6694 N.ar    1  UNL1       -0.0817
     29 C         141.1918  144.0523  163.2671 C.3     1  UNL1        0.1155
     30 C         140.3266  144.9483  162.4312 C.3     1  UNL1        0.0819
     31 C         140.4430  145.5657  161.0691 C.3     1  UNL1        0.1465
     32 O         139.1030  146.2154  161.2491 O.3     1  UNL1       -0.3535
     33 C         138.9866  145.5980  162.6111 C.3     1  UNL1        0.1465
@<TRIPOS>BOND
     1    23    24    1
     2    24    25   ar
     3    25    26   ar
     4    26    22    1
     5    22     1    1
     6     1     2   ar
     7     2     3    2
     8     2     4   ar
     9     4     5   ar
    10     5     6   ar
    11     6    13    1
    12    13    14    2
    13    13    15    2
    14    13    16    1
    15    16    18    1
    16    18    19    1
    17    18    20    1
    18    20    21    1
    19     6     7   ar
    20     7     8   ar
    21     8     9   ar
    22     9    10   ar
    23    10    29    1
    24    29    30    1
    25    30    31    1
    26    31    32    1
    27    32    33    1
    28    10    11   ar
    29    11    12    2
    30    26    27   ar
    31    27    28   ar
    32    28    24   ar
    33    11     1   ar
    34     9     4   ar
    35    33    30    1
    36    21    18    1
    37    16    17    1
@<TRIPOS>MOLECULE
*****
 33 37 0 0 0
SMALL
GASTEIGER

@<TRIPOS>ATOM
      1 N         141.1196  139.1618  161.5452 N.ar    1  UNL1       -0.2411
      2 C         141.5114  138.9271  162.9740 C.ar    1  UNL1        0.2660
      3 O         142.6247  137.9761  163.2999 O.2     1  UNL1       -0.2668
      4 C         140.7899  139.6434  164.0769 C.ar    1  UNL1        0.0735
      5 C         141.1817  139.4087  165.5056 C.ar    1  UNL1        0.0261
      6 C         140.4602  140.1250  166.6085 C.ar    1  UNL1        0.1222
      7 C         139.3469  141.0760  166.2826 C.ar    1  UNL1        0.0214
      8 C         138.9551  141.3107  164.8538 C.ar    1  UNL1        0.0188
      9 C         139.6766  140.5944  163.7510 C.ar    1  UNL1        0.0685
     10 N         139.2848  140.8290  162.3221 N.ar    1  UNL1       -0.2810
     11 C         140.0063  140.1128  161.2193 C.ar    1  UNL1        0.3341
     12 O         139.6145  140.3474  159.7905 O.2     1  UNL1       -0.2462
     13 S         140.8519  139.8903  168.0373 S.O2    1  UNL1        0.0601
     14 O         139.4218  139.5963  168.3811 O.2     1  UNL1       -0.1530
     15 O         142.2821  140.1844  167.6936 O.2     1  UNL1       -0.1530
     16 N         141.2436  139.6557  169.4661 N.3     1  UNL1       -0.1820
     17 H         141.9272  138.8986  169.4635 H       1  UNL1        0.1487
     18 C         141.8366  140.7717  170.2742 C.3     1  UNL1        0.0622
     19 C         143.0951  140.1084  170.7500 C.3     1  UNL1        0.0175
     20 C         141.9926  142.1179  170.9171 C.3     1  UNL1        0.0175
     21 C         140.7840  141.8223  170.0791 C.3     1  UNL1        0.0175
     22 C         141.8411  138.4455  160.4423 C.3     1  UNL1        0.1807
     23 C         144.7383  142.3168  158.3210 C.3     1  UNL1        0.0557
     24 C         144.0983  140.9816  158.5612 C.ar    1  UNL1        0.1008
     25 C         143.1609  140.6420  159.6819 C.ar    1  UNL1        0.0556
     26 C         142.7667  139.2021  159.5363 C.ar    1  UNL1        0.1771
     27 O         143.4605  138.6517  158.3256 O.2     1  UNL1       -0.3561
     28 N         144.2835  139.7515  157.7230 N.ar    1  UNL1       -0.0817
     29 C         138.1715  141.7800  161.9962 C.3     1  UNL1        0.1155
     30 C         138.3922  143.2596  162.1075 C.3     1  UNL1        0.0819
     31 C         139.3126  144.2469  161.4532 C.3     1  UNL1        0.1465
     32 O         138.7043  145.3519  162.2650 O.3     1  UNL1       -0.3535
     33 C         137.7839  144.3646  162.9193 C.3     1  UNL1        0.1465
@<TRIPOS>BOND
     1    23    24    1
     2    24    25   ar
     3    25    26   ar
     4    26    22    1
     5    22     1    1
     6     1     2   ar
     7     2     3    2
     8     2     4   ar
     9     4     5   ar
    10     5     6   ar
    11     6    13    1
    12    13    14    2
    13    13    15    2
    14    13    16    1
    15    16    18    1
    16    18    19    1
    17    18    20    1
    18    20    21    1
    19     6     7   ar
    20     7     8   ar
    21     8     9   ar
    22     9    10   ar
    23    10    29    1
    24    29    30    1
    25    30    31    1
    26    31    32    1
    27    32    33    1
    28    10    11   ar
    29    11    12    2
    30    26    27   ar
    31    27    28   ar
    32    28    24   ar
    33    11     1   ar
    34     9     4   ar
    35    33    30    1
    36    21    18    1
    37    16    17    1
