@<TRIPOS>MOLECULE
*****
 32 35 0 0 0
SMALL
GASTEIGER

@<TRIPOS>ATOM
      1 C         140.6005  142.7556  164.7491 C.ar    1  UNL1        0.2228
      2 N         140.6734  141.2923  164.4279 N.ar    1  UNL1       -0.1969
      3 C         140.6597  140.2798  165.5347 C.ar    1  UNL1        0.1560
      4 C         140.5730  140.7309  166.9627 C.ar    1  UNL1        0.1487
      5 N         140.5404  139.9704  168.2552 N.ar    1  UNL1       -0.2194
      6 C         140.4474  140.9638  169.3752 C.ar    1  UNL1        0.1798
      7 N         140.4224  142.3383  168.7749 N.ar    1  UNL1       -0.2923
      8 C         140.3352  143.6299  169.5326 C.3     1  UNL1        0.1335
      9 C         140.5001  142.1943  167.2838 C.ar    1  UNL1        0.1685
     10 N         140.5138  143.2066  166.1771 N.ar    1  UNL1       -0.1945
     11 C         141.2154  144.9717  161.6224 C.3     1  UNL1        0.1260
     12 C         141.5609  143.7899  162.4791 C.3     1  UNL1        0.1160
     13 N         140.6142  143.7680  163.6423 N.pl3   1  UNL1       -0.2735
     14 C         139.6835  144.9363  163.5046 C.3     1  UNL1        0.1306
     15 C         140.0551  145.6802  162.2562 C.3     1  UNL1        0.2000
     16 F         139.3841  146.9157  161.7335 F       1  UNL1       -0.2336
     17 C         141.1773  145.3079  159.0464 C.2     1  UNL1        0.2461
     18 O         139.7531  144.8389  159.0063 O.2     1  UNL1       -0.2701
     19 N         141.9084  145.3743  160.3545 N.am    1  UNL1       -0.2983
     20 H         142.8432  145.6822  160.3808 H       1  UNL1        0.1498
     21 C         141.0710  145.9651  156.5351 C.2     1  UNL1        0.0048
     22 C         141.8703  145.7105  157.7786 C.2     1  UNL1        0.0577
     23 N         140.7326  138.8164  165.2135 N.pl3   1  UNL1       -0.2917
     24 H         140.4235  138.1521  165.8710 H       1  UNL1        0.1538
     25 C         141.2764  138.3652  163.8903 C.ar    1  UNL1        0.1238
     26 C         142.7126  138.4228  163.4614 C.ar    1  UNL1        0.1146
     27 N         142.8032  137.8704  162.0698 N.ar    1  UNL1       -0.2432
     28 C         144.0543  137.7399  161.2526 C.3     1  UNL1        0.1539
     29 N         141.4230  137.4713  161.6387 N.ar    1  UNL1       -0.1301
     30 C         140.4794  137.7771  162.7639 C.ar    1  UNL1        0.2571
     31 O         138.9987  137.5370  162.7627 O.3     1  UNL1       -0.4543
     32 C         138.0591  138.6472  162.3957 C.3     1  UNL1        0.2543
@<TRIPOS>BOND
     1    21    22    2
     2    22    17    1
     3    17    18    2
     4    17    19   am
     5    11    19    1
     6    11    12    1
     7    12    13    1
     8    13     1    1
     9     1     2   ar
    10     2     3   ar
    11     3    23    1
    12    23    25    1
    13    25    26   ar
    14    26    27   ar
    15    27    28    1
    16    27    29   ar
    17    29    30   ar
    18    30    31    1
    19    31    32    1
    20     3     4   ar
    21     4     5   ar
    22     5     6   ar
    23     6     7   ar
    24     7     8    1
    25     7     9   ar
    26     9    10   ar
    27    13    14    1
    28    14    15    1
    29    15    16    1
    30    15    11    1
    31    10     1   ar
    32    30    25   ar
    33     9     4   ar
    34    19    20    1
    35    23    24    1
@<TRIPOS>MOLECULE
*****
 32 35 0 0 0
SMALL
GASTEIGER

@<TRIPOS>ATOM
      1 C         141.0353  142.7452  164.3688 C.ar    1  UNL1        0.2228
      2 N         141.4051  141.3385  164.0023 N.ar    1  UNL1       -0.1969
      3 C         141.5429  140.2961  165.0721 C.ar    1  UNL1        0.1560
      4 C         141.3108  140.6605  166.5085 C.ar    1  UNL1        0.1487
      5 N         141.3733  139.8536  167.7714 N.ar    1  UNL1       -0.2194
      6 C         141.0420  140.7616  168.9185 C.ar    1  UNL1        0.1798
      7 N         140.7749  142.1297  168.3646 N.ar    1  UNL1       -0.2923
      8 C         140.4063  143.3466  169.1604 C.3     1  UNL1        0.1335
      9 C         140.9410  142.0673  166.8751 C.ar    1  UNL1        0.1685
     10 N         140.8032  143.1096  165.8052 N.ar    1  UNL1       -0.1945
     11 C         141.2572  145.0828  161.2782 C.3     1  UNL1        0.1260
     12 C         141.7416  143.9006  162.0642 C.3     1  UNL1        0.1160
     13 N         140.8976  143.7875  163.2989 N.pl3   1  UNL1       -0.2735
     14 C         139.8915  144.8999  163.2761 C.3     1  UNL1        0.1306
     15 C         140.1138  145.7004  162.0272 C.3     1  UNL1        0.2000
     16 F         139.3302  146.9067  161.6021 F       1  UNL1       -0.2336
     17 C         141.1342  145.2059  158.6859 C.2     1  UNL1        0.2461
     18 O         139.8900  144.3683  158.7053 O.2     1  UNL1       -0.2701
     19 N         141.8178  145.5631  159.9724 N.am    1  UNL1       -0.2983
     20 H         142.6345  146.1128  159.9598 H       1  UNL1        0.1498
     21 C         142.2208  144.6986  156.3812 C.2     1  UNL1        0.0048
     22 C         141.6948  145.6861  157.3802 C.2     1  UNL1        0.0577
     23 N         141.9127  138.8894  164.7055 N.pl3   1  UNL1       -0.2917
     24 H         141.7070  138.1498  165.3218 H       1  UNL1        0.1538
     25 C         142.5960  138.6096  163.3998 C.ar    1  UNL1        0.1238
     26 C         141.9557  138.0204  162.1780 C.ar    1  UNL1        0.1146
     27 N         143.0036  137.9166  161.1098 N.ar    1  UNL1       -0.2432
     28 C         142.7994  137.3817  159.7234 C.3     1  UNL1        0.1539
     29 N         144.2916  138.4416  161.6714 N.ar    1  UNL1       -0.1301
     30 C         144.0397  138.8699  163.0867 C.ar    1  UNL1        0.2571
     31 O         145.0536  139.4557  164.0243 O.3     1  UNL1       -0.4543
     32 C         145.4140  140.9084  163.9268 C.3     1  UNL1        0.2543
@<TRIPOS>BOND
     1    21    22    2
     2    22    17    1
     3    17    18    2
     4    17    19   am
     5    11    19    1
     6    11    12    1
     7    12    13    1
     8    13     1    1
     9     1     2   ar
    10     2     3   ar
    11     3    23    1
    12    23    25    1
    13    25    26   ar
    14    26    27   ar
    15    27    28    1
    16    27    29   ar
    17    29    30   ar
    18    30    31    1
    19    31    32    1
    20     3     4   ar
    21     4     5   ar
    22     5     6   ar
    23     6     7   ar
    24     7     8    1
    25     7     9   ar
    26     9    10   ar
    27    13    14    1
    28    14    15    1
    29    15    16    1
    30    15    11    1
    31    10     1   ar
    32    30    25   ar
    33     9     4   ar
    34    19    20    1
    35    23    24    1
@<TRIPOS>MOLECULE
*****
 32 35 0 0 0
SMALL
GASTEIGER

@<TRIPOS>ATOM
      1 C         138.4590  142.3857  159.9457 C.ar    1  UNL1        0.2228
      2 N         137.9135  141.3319  159.0283 N.ar    1  UNL1       -0.1969
      3 C         138.1681  141.4172  157.5525 C.ar    1  UNL1        0.1560
      4 C         138.9683  142.5565  156.9942 C.ar    1  UNL1        0.1487
      5 N         139.3789  142.9032  155.5937 N.ar    1  UNL1       -0.2194
      6 C         140.1782  144.1714  155.6457 C.ar    1  UNL1        0.1798
      7 N         140.2616  144.6085  157.0781 N.ar    1  UNL1       -0.2923
      8 C         140.9686  145.8293  157.5877 C.3     1  UNL1        0.1335
      9 C         139.5138  143.6104  157.9116 C.ar    1  UNL1        0.1685
     10 N         139.2592  143.5250  159.3873 N.ar    1  UNL1       -0.1945
     11 C         137.8884  141.4237  163.6625 C.3     1  UNL1        0.1260
     12 C         138.1774  141.0440  162.2404 C.3     1  UNL1        0.1160
     13 N         138.2044  142.3004  161.4215 N.pl3   1  UNL1       -0.2735
     14 C         137.9322  143.4567  162.3375 C.3     1  UNL1        0.1306
     15 C         137.7369  142.9149  163.7225 C.3     1  UNL1        0.2000
     16 F         137.4418  143.7224  164.9516 F       1  UNL1       -0.2336
     17 C         138.9373  140.2732  165.7424 C.2     1  UNL1        0.2461
     18 O         140.2201  141.0135  165.5050 O.2     1  UNL1       -0.2701
     19 N         137.7715  140.4783  164.8212 N.am    1  UNL1       -0.2983
     20 H         136.9295  139.9924  164.9770 H       1  UNL1        0.1498
     21 C         137.6134  138.4469  167.0315 C.2     1  UNL1        0.0048
     22 C         138.8205  139.3278  166.9010 C.2     1  UNL1        0.0577
     23 N         137.6226  140.3632  156.6352 N.pl3   1  UNL1       -0.2917
     24 H         138.0518  139.4782  156.5917 H       1  UNL1        0.1538
     25 C         136.4231  140.6575  155.7840 C.ar    1  UNL1        0.1238
     26 C         136.4417  141.2780  154.4185 C.ar    1  UNL1        0.1146
     27 N         135.0244  141.3870  153.9396 N.ar    1  UNL1       -0.2432
     28 C         134.5797  141.9503  152.6223 C.3     1  UNL1        0.1539
     29 N         134.1299  140.8338  155.0090 N.ar    1  UNL1       -0.1301
     30 C         134.9943  140.3829  156.1489 C.ar    1  UNL1        0.2571
     31 O         134.5142  139.7659  157.4291 O.3     1  UNL1       -0.4543
     32 C         133.0516  139.5026  157.6325 C.3     1  UNL1        0.2543
@<TRIPOS>BOND
     1    21    22    2
     2    22    17    1
     3    17    18    2
     4    17    19   am
     5    11    19    1
     6    11    12    1
     7    12    13    1
     8    13     1    1
     9     1     2   ar
    10     2     3   ar
    11     3    23    1
    12    23    25    1
    13    25    26   ar
    14    26    27   ar
    15    27    28    1
    16    27    29   ar
    17    29    30   ar
    18    30    31    1
    19    31    32    1
    20     3     4   ar
    21     4     5   ar
    22     5     6   ar
    23     6     7   ar
    24     7     8    1
    25     7     9   ar
    26     9    10   ar
    27    13    14    1
    28    14    15    1
    29    15    16    1
    30    15    11    1
    31    10     1   ar
    32    30    25   ar
    33     9     4   ar
    34    19    20    1
    35    23    24    1
@<TRIPOS>MOLECULE
*****
 32 35 0 0 0
SMALL
GASTEIGER

@<TRIPOS>ATOM
      1 C         144.1455  142.2719  160.2869 C.ar    1  UNL1        0.2228
      2 N         143.4039  143.5386  160.5955 N.ar    1  UNL1       -0.1969
      3 C         143.0388  143.8678  162.0128 C.ar    1  UNL1        0.1560
      4 C         143.4155  142.9301  163.1213 C.ar    1  UNL1        0.1487
      5 N         143.1927  142.9875  164.6035 N.ar    1  UNL1       -0.2194
      6 C         143.7967  141.7561  165.2110 C.ar    1  UNL1        0.1798
      7 N         144.3928  140.9378  164.1042 N.ar    1  UNL1       -0.2923
      8 C         145.1003  139.6245  164.2613 C.3     1  UNL1        0.1335
      9 C         144.1572  141.6634  162.8126 C.ar    1  UNL1        0.1685
     10 N         144.5222  141.3343  161.3954 N.ar    1  UNL1       -0.1945
     11 C         145.3347  142.1324  156.5947 C.3     1  UNL1        0.1260
     12 C         145.1498  142.8758  157.8844 C.3     1  UNL1        0.1160
     13 N         144.5105  141.9428  158.8697 N.pl3   1  UNL1       -0.2735
     14 C         144.3004  140.6227  158.1890 C.3     1  UNL1        0.1306
     15 C         144.8097  140.7399  156.7830 C.3     1  UNL1        0.2000
     16 F         144.7964  139.6551  155.7472 F       1  UNL1       -0.2336
     17 C         147.4285  142.6994  155.1649 C.2     1  UNL1        0.2461
     18 O         148.3146  142.1622  156.2494 O.2     1  UNL1       -0.2701
     19 N         145.9386  142.6845  155.3375 N.am    1  UNL1       -0.2983
     20 H         145.3570  143.0371  154.6257 H       1  UNL1        0.1498
     21 C         147.2024  143.3633  152.6632 C.2     1  UNL1        0.0048
     22 C         148.0323  143.2515  153.9078 C.2     1  UNL1        0.0577
     23 N         142.2971  145.1346  162.3213 N.pl3   1  UNL1       -0.2917
     24 H         142.7690  145.9984  162.3020 H       1  UNL1        0.1538
     25 C         140.8366  145.0852  162.6593 C.ar    1  UNL1        0.1238
     26 C         140.2508  144.6965  163.9844 C.ar    1  UNL1        0.1146
     27 N         138.7576  144.7869  163.8755 N.ar    1  UNL1       -0.2432
     28 C         137.7740  144.4856  164.9673 C.3     1  UNL1        0.1539
     29 N         138.4203  145.2314  162.4832 N.ar    1  UNL1       -0.1301
     30 C         139.7053  145.4158  161.7315 C.ar    1  UNL1        0.2571
     31 O         139.8359  145.8539  160.3028 O.3     1  UNL1       -0.4543
     32 C         140.3106  144.8843  159.2614 C.3     1  UNL1        0.2543
@<TRIPOS>BOND
     1    21    22    2
     2    22    17    1
     3    17    18    2
     4    17    19   am
     5    11    19    1
     6    11    12    1
     7    12    13    1
     8    13     1    1
     9     1     2   ar
    10     2     3   ar
    11     3    23    1
    12    23    25    1
    13    25    26   ar
    14    26    27   ar
    15    27    28    1
    16    27    29   ar
    17    29    30   ar
    18    30    31    1
    19    31    32    1
    20     3     4   ar
    21     4     5   ar
    22     5     6   ar
    23     6     7   ar
    24     7     8    1
    25     7     9   ar
    26     9    10   ar
    27    13    14    1
    28    14    15    1
    29    15    16    1
    30    15    11    1
    31    10     1   ar
    32    30    25   ar
    33     9     4   ar
    34    19    20    1
    35    23    24    1
@<TRIPOS>MOLECULE
*****
 32 35 0 0 0
SMALL
GASTEIGER

@<TRIPOS>ATOM
      1 C         141.0995  138.4095  157.7982 C.ar    1  UNL1        0.2228
      2 N         139.8467  138.3105  158.6171 N.ar    1  UNL1       -0.1969
      3 C         139.3547  139.5031  159.3824 C.ar    1  UNL1        0.1560
      4 C         140.1155  140.7947  159.3287 C.ar    1  UNL1        0.1487
      5 N         139.8760  142.1281  159.9726 N.ar    1  UNL1       -0.2194
      6 C         140.9807  143.0512  159.5515 C.ar    1  UNL1        0.1798
      7 N         141.9031  142.2883  158.6474 N.ar    1  UNL1       -0.2923
      8 C         143.1425  142.8258  157.9955 C.3     1  UNL1        0.1335
      9 C         141.3683  140.8937  158.5098 C.ar    1  UNL1        0.1685
     10 N         141.8603  139.7011  157.7445 N.ar    1  UNL1       -0.1945
     11 C         142.9687  135.3670  156.2766 C.3     1  UNL1        0.1260
     12 C         142.8842  136.4922  157.2650 C.3     1  UNL1        0.1160
     13 N         141.5915  137.2169  157.0328 N.pl3   1  UNL1       -0.2735
     14 C         140.8772  136.5396  155.9009 C.3     1  UNL1        0.1306
     15 C         141.7284  135.3964  155.4336 C.3     1  UNL1        0.2000
     16 F         141.3973  134.4488  154.3189 F       1  UNL1       -0.2336
     17 C         143.8985  132.9596  156.5764 C.2     1  UNL1        0.2461
     18 O         142.5741  132.5163  157.1235 O.2     1  UNL1       -0.2701
     19 N         144.0958  134.3850  156.1529 N.am    1  UNL1       -0.2983
     20 H         144.9651  134.6760  155.7938 H       1  UNL1        0.1498
     21 C         144.8322  130.7076  155.6783 C.2     1  UNL1        0.0048
     22 C         145.0255  131.9776  156.4527 C.2     1  UNL1        0.0577
     23 N         138.1019  139.4040  160.2014 N.pl3   1  UNL1       -0.2917
     24 H         137.2245  139.3669  159.7563 H       1  UNL1        0.1538
     25 C         138.1858  139.3614  161.6984 C.ar    1  UNL1        0.1238
     26 C         138.6572  138.2000  162.5223 C.ar    1  UNL1        0.1146
     27 N         138.5758  138.5936  163.9674 N.ar    1  UNL1       -0.2432
     28 C         138.9504  137.7335  165.1380 C.3     1  UNL1        0.1539
     29 N         138.0542  139.9982  164.0367 N.ar    1  UNL1       -0.1301
     30 C         137.8131  140.4727  162.6343 C.ar    1  UNL1        0.2571
     31 O         137.2911  141.8219  162.2375 O.3     1  UNL1       -0.4543
     32 C         137.7683  143.0508  162.9528 C.3     1  UNL1        0.2543
@<TRIPOS>BOND
     1    21    22    2
     2    22    17    1
     3    17    18    2
     4    17    19   am
     5    11    19    1
     6    11    12    1
     7    12    13    1
     8    13     1    1
     9     1     2   ar
    10     2     3   ar
    11     3    23    1
    12    23    25    1
    13    25    26   ar
    14    26    27   ar
    15    27    28    1
    16    27    29   ar
    17    29    30   ar
    18    30    31    1
    19    31    32    1
    20     3     4   ar
    21     4     5   ar
    22     5     6   ar
    23     6     7   ar
    24     7     8    1
    25     7     9   ar
    26     9    10   ar
    27    13    14    1
    28    14    15    1
    29    15    16    1
    30    15    11    1
    31    10     1   ar
    32    30    25   ar
    33     9     4   ar
    34    19    20    1
    35    23    24    1
@<TRIPOS>MOLECULE
*****
 32 35 0 0 0
SMALL
GASTEIGER

@<TRIPOS>ATOM
      1 C         138.5805  142.3092  160.0424 C.ar    1  UNL1        0.2228
      2 N         138.2992  141.0980  159.2035 N.ar    1  UNL1       -0.1969
      3 C         138.6021  141.1162  157.7345 C.ar    1  UNL1        0.1560
      4 C         139.1862  142.3458  157.1044 C.ar    1  UNL1        0.1487
      5 N         139.5863  142.6566  155.6926 N.ar    1  UNL1       -0.2194
      6 C         140.1149  144.0600  155.6589 C.ar    1  UNL1        0.1798
      7 N         140.0414  144.6165  157.0499 N.ar    1  UNL1       -0.2923
      8 C         140.4672  145.9911  157.4732 C.3     1  UNL1        0.1335
      9 C         139.4675  143.5570  157.9433 C.ar    1  UNL1        0.1685
     10 N         139.1646  143.5388  159.4123 N.ar    1  UNL1       -0.1945
     11 C         137.8910  141.5173  163.7791 C.3     1  UNL1        0.1260
     12 C         138.2281  141.0736  162.3864 C.3     1  UNL1        0.1160
     13 N         138.2776  142.2910  161.5114 N.pl3   1  UNL1       -0.2735
     14 C         137.9712  143.4870  162.3633 C.3     1  UNL1        0.1306
     15 C         137.7322  143.0088  163.7648 C.3     1  UNL1        0.2000
     16 F         137.3939  143.8708  164.9448 F       1  UNL1       -0.2336
     17 C         138.9505  140.1967  165.7498 C.2     1  UNL1        0.2461
     18 O         140.3133  140.6589  165.3268 O.2     1  UNL1       -0.2701
     19 N         137.7393  140.6259  164.9760 N.am    1  UNL1       -0.2983
     20 H         136.8448  140.3226  165.2536 H       1  UNL1        0.1498
     21 C         137.5761  138.4490  167.0939 C.2     1  UNL1        0.0048
     22 C         138.7988  139.3054  166.9466 C.2     1  UNL1        0.0577
     23 N         138.3208  139.9049  156.8956 N.pl3   1  UNL1       -0.2917
     24 H         137.4480  139.8059  156.4511 H       1  UNL1        0.1538
     25 C         139.3693  138.8445  156.7342 C.ar    1  UNL1        0.1238
     26 C         140.7594  138.8862  157.2962 C.ar    1  UNL1        0.1146
     27 N         141.4610  137.6237  156.8916 N.ar    1  UNL1       -0.2432
     28 C         142.8715  137.2489  157.2383 C.3     1  UNL1        0.1539
     29 N         140.5045  136.8016  156.0796 N.ar    1  UNL1       -0.1301
     30 C         139.2118  137.5562  155.9823 C.ar    1  UNL1        0.2571
     31 O         137.9780  137.1020  155.2599 O.3     1  UNL1       -0.4543
     32 C         137.6364  137.6839  153.9203 C.3     1  UNL1        0.2543
@<TRIPOS>BOND
     1    21    22    2
     2    22    17    1
     3    17    18    2
     4    17    19   am
     5    11    19    1
     6    11    12    1
     7    12    13    1
     8    13     1    1
     9     1     2   ar
    10     2     3   ar
    11     3    23    1
    12    23    25    1
    13    25    26   ar
    14    26    27   ar
    15    27    28    1
    16    27    29   ar
    17    29    30   ar
    18    30    31    1
    19    31    32    1
    20     3     4   ar
    21     4     5   ar
    22     5     6   ar
    23     6     7   ar
    24     7     8    1
    25     7     9   ar
    26     9    10   ar
    27    13    14    1
    28    14    15    1
    29    15    16    1
    30    15    11    1
    31    10     1   ar
    32    30    25   ar
    33     9     4   ar
    34    19    20    1
    35    23    24    1
@<TRIPOS>MOLECULE
*****
 32 35 0 0 0
SMALL
GASTEIGER

@<TRIPOS>ATOM
      1 C         143.0417  136.8181  156.8406 C.ar    1  UNL1        0.2228
      2 N         142.5506  137.5238  158.0697 N.ar    1  UNL1       -0.1969
      3 C         142.7842  138.9966  158.2327 C.ar    1  UNL1        0.1560
      4 C         143.5089  139.7635  157.1666 C.ar    1  UNL1        0.1487
      5 N         143.8832  141.2114  157.0505 N.ar    1  UNL1       -0.2194
      6 C         144.6057  141.4005  155.7496 C.ar    1  UNL1        0.1798
      7 N         144.6778  140.0695  155.0617 N.ar    1  UNL1       -0.2923
      8 C         145.3158  139.7979  153.7316 C.3     1  UNL1        0.1335
      9 C         143.9999  139.0578  155.9374 C.ar    1  UNL1        0.1685
     10 N         143.7663  137.5851  155.7745 N.ar    1  UNL1       -0.1945
     11 C         142.8854  132.9440  157.0211 C.3     1  UNL1        0.1260
     12 C         143.3776  134.2611  157.5436 C.3     1  UNL1        0.1160
     13 N         142.8081  135.3454  156.6776 N.pl3   1  UNL1       -0.2735
     14 C         141.9640  134.6984  155.6197 C.3     1  UNL1        0.1306
     15 C         142.0118  133.2143  155.8321 C.3     1  UNL1        0.2000
     16 F         141.3093  132.1817  155.0012 F       1  UNL1       -0.2336
     17 C         144.4312  130.8583  157.1217 C.2     1  UNL1        0.2461
     18 O         145.3280  131.4731  156.0884 O.2     1  UNL1       -0.2701
     19 N         143.2099  131.5937  157.5880 N.am    1  UNL1       -0.2983
     20 H         142.6213  131.1902  158.2662 H       1  UNL1        0.1498
     21 C         144.0886  129.0438  158.9493 C.2     1  UNL1        0.0048
     22 C         144.7557  129.5081  157.6886 C.2     1  UNL1        0.0577
     23 N         142.2931  139.7023  159.4619 N.pl3   1  UNL1       -0.2917
     24 H         142.5854  140.6233  159.6507 H       1  UNL1        0.1538
     25 C         141.3567  139.0048  160.4035 C.ar    1  UNL1        0.1238
     26 C         139.8587  139.0730  160.3688 C.ar    1  UNL1        0.1146
     27 N         139.3302  138.2270  161.4890 N.ar    1  UNL1       -0.2432
     28 C         137.8840  138.0100  161.8235 C.3     1  UNL1        0.1539
     29 N         140.5015  137.6359  162.2160 N.ar    1  UNL1       -0.1301
     30 C         141.7540  138.1167  161.5451 C.ar    1  UNL1        0.2571
     31 O         143.1574  137.7701  161.9456 O.3     1  UNL1       -0.4543
     32 C         144.0083  138.7843  162.6508 C.3     1  UNL1        0.2543
@<TRIPOS>BOND
     1    21    22    2
     2    22    17    1
     3    17    18    2
     4    17    19   am
     5    11    19    1
     6    11    12    1
     7    12    13    1
     8    13     1    1
     9     1     2   ar
    10     2     3   ar
    11     3    23    1
    12    23    25    1
    13    25    26   ar
    14    26    27   ar
    15    27    28    1
    16    27    29   ar
    17    29    30   ar
    18    30    31    1
    19    31    32    1
    20     3     4   ar
    21     4     5   ar
    22     5     6   ar
    23     6     7   ar
    24     7     8    1
    25     7     9   ar
    26     9    10   ar
    27    13    14    1
    28    14    15    1
    29    15    16    1
    30    15    11    1
    31    10     1   ar
    32    30    25   ar
    33     9     4   ar
    34    19    20    1
    35    23    24    1
@<TRIPOS>MOLECULE
*****
 32 35 0 0 0
SMALL
GASTEIGER

@<TRIPOS>ATOM
      1 C         140.3381  142.0279  163.0855 C.ar    1  UNL1        0.2228
      2 N         141.0795  141.8636  164.3790 N.ar    1  UNL1       -0.1969
      3 C         140.9967  140.5688  165.1318 C.ar    1  UNL1        0.1560
      4 C         140.1725  139.4383  164.5910 C.ar    1  UNL1        0.1487
      5 N         139.9036  138.0558  165.1071 N.ar    1  UNL1       -0.2194
      6 C         138.9960  137.3656  164.1325 C.ar    1  UNL1        0.1798
      7 N         138.7039  138.3215  163.0140 N.ar    1  UNL1       -0.2923
      8 C         137.8370  138.0450  161.8216 C.3     1  UNL1        0.1335
      9 C         139.4311  139.6025  163.2974 C.ar    1  UNL1        0.1685
     10 N         139.5139  140.8974  162.5447 N.ar    1  UNL1       -0.1945
     11 C         141.0187  144.9995  160.6831 C.3     1  UNL1        0.1260
     12 C         141.2308  143.5729  161.0953 C.3     1  UNL1        0.1160
     13 N         140.4209  143.3227  162.3327 N.pl3   1  UNL1       -0.2735
     14 C         139.7082  144.5947  162.6854 C.3     1  UNL1        0.1306
     15 C         140.0777  145.6310  161.6658 C.3     1  UNL1        0.2000
     16 F         139.5915  147.0496  161.6345 F       1  UNL1       -0.2336
     17 C         141.1485  145.3630  158.1138 C.2     1  UNL1        0.2461
     18 O         140.0381  144.3737  157.9178 O.2     1  UNL1       -0.2701
     19 N         141.6387  145.6759  159.4964 N.am    1  UNL1       -0.2983
     20 H         142.3675  146.3252  159.6251 H       1  UNL1        0.1498
     21 C         142.2155  145.2258  155.7489 C.2     1  UNL1        0.0048
     22 C         141.7685  146.0393  156.9272 C.2     1  UNL1        0.0577
     23 N         141.7382  140.4046  166.4254 N.pl3   1  UNL1       -0.2917
     24 H         142.6819  140.1241  166.4197 H       1  UNL1        0.1538
     25 C         141.0418  140.6677  167.7276 C.ar    1  UNL1        0.1238
     26 C         139.7700  140.0232  168.1934 C.ar    1  UNL1        0.1146
     27 N         139.4372  140.5788  169.5463 N.ar    1  UNL1       -0.2432
     28 C         138.2471  140.2110  170.3822 C.3     1  UNL1        0.1539
     29 N         140.5034  141.5667  169.9168 N.ar    1  UNL1       -0.1301
     30 C         141.4951  141.6217  168.7928 C.ar    1  UNL1        0.2571
     31 O         142.7243  142.4800  168.7427 O.3     1  UNL1       -0.4543
     32 C         143.7869  142.3301  169.7907 C.3     1  UNL1        0.2543
@<TRIPOS>BOND
     1    21    22    2
     2    22    17    1
     3    17    18    2
     4    17    19   am
     5    11    19    1
     6    11    12    1
     7    12    13    1
     8    13     1    1
     9     1     2   ar
    10     2     3   ar
    11     3    23    1
    12    23    25    1
    13    25    26   ar
    14    26    27   ar
    15    27    28    1
    16    27    29   ar
    17    29    30   ar
    18    30    31    1
    19    31    32    1
    20     3     4   ar
    21     4     5   ar
    22     5     6   ar
    23     6     7   ar
    24     7     8    1
    25     7     9   ar
    26     9    10   ar
    27    13    14    1
    28    14    15    1
    29    15    16    1
    30    15    11    1
    31    10     1   ar
    32    30    25   ar
    33     9     4   ar
    34    19    20    1
    35    23    24    1
@<TRIPOS>MOLECULE
*****
 32 35 0 0 0
SMALL
GASTEIGER

@<TRIPOS>ATOM
      1 C         141.8900  139.3271  161.2651 C.ar    1  UNL1        0.2228
      2 N         140.7713  140.3213  161.1667 N.ar    1  UNL1       -0.1969
      3 C         139.9824  140.4395  159.8963 C.ar    1  UNL1        0.1560
      4 C         140.3124  139.5633  158.7244 C.ar    1  UNL1        0.1487
      5 N         139.7147  139.4543  157.3529 N.ar    1  UNL1       -0.2194
      6 C         140.4642  138.3927  156.6037 C.ar    1  UNL1        0.1798
      7 N         141.5250  137.8456  157.5122 N.ar    1  UNL1       -0.2923
      8 C         142.5072  136.7647  157.1700 C.3     1  UNL1        0.1335
      9 C         141.4312  138.5691  158.8228 C.ar    1  UNL1        0.1685
     10 N         142.2201  138.4510  160.0931 N.ar    1  UNL1       -0.1945
     11 C         143.2743  138.8096  164.8542 C.3     1  UNL1        0.1260
     12 C         142.1417  138.7873  163.8709 C.3     1  UNL1        0.1160
     13 N         142.6789  139.2090  162.5354 N.pl3   1  UNL1       -0.2735
     14 C         144.1436  139.4918  162.6933 C.3     1  UNL1        0.1306
     15 C         144.5115  139.2450  164.1263 C.3     1  UNL1        0.2000
     16 F         145.8770  139.4053  164.7261 F       1  UNL1       -0.2336
     17 C         142.7008  139.4763  167.2989 C.2     1  UNL1        0.2461
     18 O         142.3052  140.8459  166.8325 O.2     1  UNL1       -0.2701
     19 N         143.1854  138.4581  166.3097 N.am    1  UNL1       -0.2983
     20 H         143.4450  137.5591  166.6158 H       1  UNL1        0.1498
     21 C         141.5503  139.7465  169.6126 C.2     1  UNL1        0.0048
     22 C         142.6119  139.1248  168.7543 C.2     1  UNL1        0.0577
     23 N         138.8635  141.4338  159.7979 N.pl3   1  UNL1       -0.2917
     24 H         138.1360  141.2936  159.1496 H       1  UNL1        0.1538
     25 C         138.8532  142.6416  160.6873 C.ar    1  UNL1        0.1238
     26 C         139.6529  143.8940  160.4828 C.ar    1  UNL1        0.1146
     27 N         139.3352  144.8354  161.6065 N.ar    1  UNL1       -0.2432
     28 C         139.9123  146.2068  161.7977 C.3     1  UNL1        0.1539
     29 N         138.3391  144.1649  162.5055 N.ar    1  UNL1       -0.1301
     30 C         138.0412  142.8090  161.9373 C.ar    1  UNL1        0.2571
     31 O         137.0970  141.7980  162.5175 O.3     1  UNL1       -0.4543
     32 C         137.6343  140.5764  163.2023 C.3     1  UNL1        0.2543
@<TRIPOS>BOND
     1    21    22    2
     2    22    17    1
     3    17    18    2
     4    17    19   am
     5    11    19    1
     6    11    12    1
     7    12    13    1
     8    13     1    1
     9     1     2   ar
    10     2     3   ar
    11     3    23    1
    12    23    25    1
    13    25    26   ar
    14    26    27   ar
    15    27    28    1
    16    27    29   ar
    17    29    30   ar
    18    30    31    1
    19    31    32    1
    20     3     4   ar
    21     4     5   ar
    22     5     6   ar
    23     6     7   ar
    24     7     8    1
    25     7     9   ar
    26     9    10   ar
    27    13    14    1
    28    14    15    1
    29    15    16    1
    30    15    11    1
    31    10     1   ar
    32    30    25   ar
    33     9     4   ar
    34    19    20    1
    35    23    24    1
