@<TRIPOS>MOLECULE
*****
 25 28 0 0 0
SMALL
GASTEIGER

@<TRIPOS>ATOM
      1 C         139.2139  142.3692  165.1956 C.ar    1  UNL1        0.0890
      2 C         140.1648  142.7318  166.2975 C.ar    1  UNL1        0.0401
      3 C         140.3910  141.7815  167.4360 C.ar    1  UNL1        0.1051
      4 N         141.3420  142.1440  168.5379 N.ar    1  UNL1       -0.2405
      5 C         141.5681  141.1938  169.6762 C.ar    1  UNL1        0.1195
      6 C         140.8433  139.8810  169.7126 C.ar    1  UNL1        0.1197
      7 N         139.8924  139.5185  168.6107 N.ar    1  UNL1       -0.2360
      8 C         139.6662  140.4687  167.4724 C.ar    1  UNL1        0.1519
      9 C         138.7153  140.1062  166.3704 C.ar    1  UNL1        0.2445
     10 N         138.4891  141.0565  165.2321 N.ar    1  UNL1       -0.2102
     11 C         139.8410  146.3288  161.7591 C.3     1  UNL1        0.1538
     12 N         139.2760  145.1395  162.4776 N.ar    1  UNL1       -0.2473
     13 C         139.8843  144.4568  163.6668 C.ar    1  UNL1        0.0982
     14 C         138.9877  143.3195  164.0572 C.ar    1  UNL1        0.0574
     15 C         137.8252  143.2992  163.1095 C.ar    1  UNL1        0.1231
     16 N         138.0033  144.4240  162.1333 N.ar    1  UNL1       -0.1675
     17 O         137.9905  138.7934  166.4068 O.3     1  UNL1       -0.4591
     18 C         138.6532  137.5559  165.8783 C.3     1  UNL1        0.2084
     19 C         139.4675  137.6202  164.6203 C.3     1  UNL1        0.0596
     20 C         140.9627  137.7112  164.6985 C.3     1  UNL1        0.0065
     21 C         141.7770  137.7755  163.4405 C.3     1  UNL1        0.0172
     22 C         141.0962  137.7487  162.1042 C.3     1  UNL1        0.0686
     23 N         139.6010  137.6577  162.0259 N.3     1  UNL1       -0.2974
     24 C         138.7866  137.5934  163.2839 C.3     1  UNL1        0.0723
     25 H         139.3848  136.8160  161.4919 H       1  UNL1        0.1232
@<TRIPOS>BOND
     1    11    12    1
     2    12    13   ar
     3    13    14   ar
     4    14     1    1
     5     1     2   ar
     6     2     3   ar
     7     3     4   ar
     8     4     5   ar
     9     5     6   ar
    10     6     7   ar
    11     7     8   ar
    12     8     9   ar
    13     9    17    1
    14    17    18    1
    15    19    18    1
    16    19    20    1
    17    20    21    1
    18    21    22    1
    19    22    23    1
    20    23    24    1
    21     9    10   ar
    22    14    15   ar
    23    15    16   ar
    24    16    12   ar
    25    10     1   ar
    26     8     3   ar
    27    24    19    1
    28    23    25    1
@<TRIPOS>MOLECULE
*****
 25 28 0 0 0
SMALL
GASTEIGER

@<TRIPOS>ATOM
      1 C         140.2563  142.0246  167.0168 C.ar    1  UNL1        0.0890
      2 C         140.0649  142.9643  165.8634 C.ar    1  UNL1        0.0401
      3 C         139.1943  142.5666  164.7084 C.ar    1  UNL1        0.1051
      4 N         139.0030  143.5062  163.5550 N.ar    1  UNL1       -0.2405
      5 C         138.1324  143.1085  162.4001 C.ar    1  UNL1        0.1195
      6 C         137.4531  141.7711  162.3987 C.ar    1  UNL1        0.1197
      7 N         137.6444  140.8314  163.5521 N.ar    1  UNL1       -0.2360
      8 C         138.5150  141.2292  164.7070 C.ar    1  UNL1        0.1519
      9 C         138.7064  140.2895  165.8605 C.ar    1  UNL1        0.2445
     10 N         139.5770  140.6872  167.0153 N.ar    1  UNL1       -0.2102
     11 C         144.4513  142.6459  170.1628 C.3     1  UNL1        0.1538
     12 N         143.0552  142.7079  169.6178 N.ar    1  UNL1       -0.2473
     13 C         142.5908  142.1279  168.3147 C.ar    1  UNL1        0.0982
     14 C         141.1269  142.4223  168.1718 C.ar    1  UNL1        0.0574
     15 C         140.6865  143.1842  169.3865 C.ar    1  UNL1        0.1231
     16 N         141.8782  143.3607  170.2802 N.ar    1  UNL1       -0.1675
     17 O         138.0272  138.9521  165.8590 O.3     1  UNL1       -0.4591
     18 C         138.7952  137.7213  165.4781 C.3     1  UNL1        0.2084
     19 C         139.7185  137.7491  164.2963 C.3     1  UNL1        0.0596
     20 C         141.2009  137.8439  164.5047 C.3     1  UNL1        0.0065
     21 C         142.1241  137.8717  163.3228 C.3     1  UNL1        0.0172
     22 C         141.5650  137.8046  161.9326 C.3     1  UNL1        0.0686
     23 N         140.0826  137.7098  161.7241 N.3     1  UNL1       -0.2974
     24 C         139.1593  137.6820  162.9060 C.3     1  UNL1        0.0723
     25 H         139.9135  136.8524  161.1981 H       1  UNL1        0.1232
@<TRIPOS>BOND
     1    11    12    1
     2    12    13   ar
     3    13    14   ar
     4    14     1    1
     5     1     2   ar
     6     2     3   ar
     7     3     4   ar
     8     4     5   ar
     9     5     6   ar
    10     6     7   ar
    11     7     8   ar
    12     8     9   ar
    13     9    17    1
    14    17    18    1
    15    19    18    1
    16    19    20    1
    17    20    21    1
    18    21    22    1
    19    22    23    1
    20    23    24    1
    21     9    10   ar
    22    14    15   ar
    23    15    16   ar
    24    16    12   ar
    25    10     1   ar
    26     8     3   ar
    27    24    19    1
    28    23    25    1
@<TRIPOS>MOLECULE
*****
 25 28 0 0 0
SMALL
GASTEIGER

@<TRIPOS>ATOM
      1 C         140.7629  142.6063  165.8257 C.ar    1  UNL1        0.0890
      2 C         140.5661  142.7995  167.3001 C.ar    1  UNL1        0.0401
      3 C         141.2784  141.9093  168.2749 C.ar    1  UNL1        0.1051
      4 N         141.0816  142.1025  169.7493 N.ar    1  UNL1       -0.2405
      5 C         141.7939  141.2123  170.7240 C.ar    1  UNL1        0.1195
      6 C         142.7031  140.1289  170.2243 C.ar    1  UNL1        0.1197
      7 N         142.9000  139.9357  168.7500 N.ar    1  UNL1       -0.2360
      8 C         142.1876  140.8259  167.7752 C.ar    1  UNL1        0.1519
      9 C         142.3844  140.6327  166.3008 C.ar    1  UNL1        0.2445
     10 N         141.6721  141.5229  165.3260 N.ar    1  UNL1       -0.2102
     11 C         139.8140  146.1248  162.0046 C.3     1  UNL1        0.1538
     12 N         139.6145  145.1138  163.0945 N.ar    1  UNL1       -0.2473
     13 C         140.6998  144.4200  163.8633 C.ar    1  UNL1        0.0982
     14 C         140.0506  143.4965  164.8509 C.ar    1  UNL1        0.0574
     15 C         138.5640  143.6193  164.6926 C.ar    1  UNL1        0.1231
     16 N         138.2945  144.6188  163.6072 N.ar    1  UNL1       -0.1675
     17 O         143.2936  139.5493  165.8011 O.3     1  UNL1       -0.4591
     18 C         142.7510  138.1754  165.5412 C.3     1  UNL1        0.2084
     19 C         141.5927  137.9909  164.6061 C.3     1  UNL1        0.0596
     20 C         140.1885  138.0566  165.1294 C.3     1  UNL1        0.0065
     21 C         139.0302  137.8722  164.1943 C.3     1  UNL1        0.0172
     22 C         139.2762  137.6221  162.7359 C.3     1  UNL1        0.0686
     23 N         140.6804  137.5564  162.2125 N.3     1  UNL1       -0.2974
     24 C         141.8387  137.7408  163.1476 C.3     1  UNL1        0.0723
     25 H         140.7620  138.2785  161.4968 H       1  UNL1        0.1232
@<TRIPOS>BOND
     1    11    12    1
     2    12    13   ar
     3    13    14   ar
     4    14     1    1
     5     1     2   ar
     6     2     3   ar
     7     3     4   ar
     8     4     5   ar
     9     5     6   ar
    10     6     7   ar
    11     7     8   ar
    12     8     9   ar
    13     9    17    1
    14    17    18    1
    15    19    18    1
    16    19    20    1
    17    20    21    1
    18    21    22    1
    19    22    23    1
    20    23    24    1
    21     9    10   ar
    22    14    15   ar
    23    15    16   ar
    24    16    12   ar
    25    10     1   ar
    26     8     3   ar
    27    24    19    1
    28    23    25    1
@<TRIPOS>MOLECULE
*****
 25 28 0 0 0
SMALL
GASTEIGER

@<TRIPOS>ATOM
      1 C         139.4863  140.3216  166.2609 C.ar    1  UNL1        0.0890
      2 C         139.2328  139.1373  165.3759 C.ar    1  UNL1        0.0401
      3 C         138.7160  139.3394  163.9823 C.ar    1  UNL1        0.1051
      4 N         138.4625  138.1552  163.0973 N.ar    1  UNL1       -0.2405
      5 C         137.9457  138.3573  161.7038 C.ar    1  UNL1        0.1195
      6 C         137.6825  139.7437  161.1952 C.ar    1  UNL1        0.1197
      7 N         137.9360  140.9279  162.0801 N.ar    1  UNL1       -0.2360
      8 C         138.4527  140.7258  163.4737 C.ar    1  UNL1        0.1519
      9 C         138.7063  141.9101  164.3588 C.ar    1  UNL1        0.2445
     10 N         139.2230  141.7080  165.7523 N.ar    1  UNL1       -0.2102
     11 C         142.7432  139.5932  170.3528 C.3     1  UNL1        0.1538
     12 N         141.5002  139.7847  169.5354 N.ar    1  UNL1       -0.2473
     13 C         141.4423  139.9622  168.0469 C.ar    1  UNL1        0.0982
     14 C         140.0031  140.1195  167.6545 C.ar    1  UNL1        0.0574
     15 C         139.1715  140.0393  168.9003 C.ar    1  UNL1        0.1231
     16 N         140.0967  139.8324  170.0627 N.ar    1  UNL1       -0.1675
     17 O         138.4430  143.2965  163.8502 O.3     1  UNL1       -0.4591
     18 C         139.3424  144.4269  164.2541 C.3     1  UNL1        0.2084
     19 C         140.7648  144.4600  163.7792 C.3     1  UNL1        0.0596
     20 C         141.8493  143.8487  164.6159 C.3     1  UNL1        0.0065
     21 C         143.2718  143.8818  164.1410 C.3     1  UNL1        0.0172
     22 C         143.6098  144.5263  162.8294 C.3     1  UNL1        0.0686
     23 N         142.5253  145.1376  161.9926 N.3     1  UNL1       -0.2974
     24 C         141.1028  145.1045  162.4674 C.3     1  UNL1        0.0723
     25 H         142.5457  144.6617  161.0906 H       1  UNL1        0.1232
@<TRIPOS>BOND
     1    11    12    1
     2    12    13   ar
     3    13    14   ar
     4    14     1    1
     5     1     2   ar
     6     2     3   ar
     7     3     4   ar
     8     4     5   ar
     9     5     6   ar
    10     6     7   ar
    11     7     8   ar
    12     8     9   ar
    13     9    17    1
    14    17    18    1
    15    19    18    1
    16    19    20    1
    17    20    21    1
    18    21    22    1
    19    22    23    1
    20    23    24    1
    21     9    10   ar
    22    14    15   ar
    23    15    16   ar
    24    16    12   ar
    25    10     1   ar
    26     8     3   ar
    27    24    19    1
    28    23    25    1
@<TRIPOS>MOLECULE
*****
 25 28 0 0 0
SMALL
GASTEIGER

@<TRIPOS>ATOM
      1 C         142.1918  139.6847  165.9654 C.ar    1  UNL1        0.0890
      2 C         143.2959  139.3135  165.0203 C.ar    1  UNL1        0.0401
      3 C         142.9709  138.8673  163.6256 C.ar    1  UNL1        0.1051
      4 N         144.0749  138.4961  162.6805 N.ar    1  UNL1       -0.2405
      5 C         143.7499  138.0499  161.2858 C.ar    1  UNL1        0.1195
      6 C         142.3208  137.9748  160.8362 C.ar    1  UNL1        0.1197
      7 N         141.2168  138.3459  161.7813 N.ar    1  UNL1       -0.2360
      8 C         141.5418  138.7922  163.1760 C.ar    1  UNL1        0.1519
      9 C         140.4377  139.1634  164.1212 C.ar    1  UNL1        0.2445
     10 N         140.7627  139.6096  165.5159 N.ar    1  UNL1       -0.2102
     11 C         143.2879  142.7324  170.1358 C.3     1  UNL1        0.1538
     12 N         143.0206  141.5319  169.2771 N.ar    1  UNL1       -0.2473
     13 C         142.7138  141.5487  167.8088 C.ar    1  UNL1        0.0982
     14 C         142.5168  140.1310  167.3602 C.ar    1  UNL1        0.0574
     15 C         142.7019  139.2379  168.5511 C.ar    1  UNL1        0.1231
     16 N         143.0132  140.1037  169.7358 N.ar    1  UNL1       -0.1675
     17 O         139.0086  139.0883  163.6716 O.3     1  UNL1       -0.4591
     18 C         137.9894  140.0226  164.2530 C.3     1  UNL1        0.2084
     19 C         137.9469  141.4554  163.8110 C.3     1  UNL1        0.0596
     20 C         138.2105  142.5531  164.7986 C.3     1  UNL1        0.0065
     21 C         138.1679  143.9859  164.3566 C.3     1  UNL1        0.0172
     22 C         137.8619  144.3209  162.9269 C.3     1  UNL1        0.0686
     23 N         137.5983  143.2231  161.9392 N.3     1  UNL1       -0.2974
     24 C         137.6408  141.7904  162.3812 C.3     1  UNL1        0.0723
     25 H         138.2904  143.3228  161.1965 H       1  UNL1        0.1232
@<TRIPOS>BOND
     1    11    12    1
     2    12    13   ar
     3    13    14   ar
     4    14     1    1
     5     1     2   ar
     6     2     3   ar
     7     3     4   ar
     8     4     5   ar
     9     5     6   ar
    10     6     7   ar
    11     7     8   ar
    12     8     9   ar
    13     9    17    1
    14    17    18    1
    15    19    18    1
    16    19    20    1
    17    20    21    1
    18    21    22    1
    19    22    23    1
    20    23    24    1
    21     9    10   ar
    22    14    15   ar
    23    15    16   ar
    24    16    12   ar
    25    10     1   ar
    26     8     3   ar
    27    24    19    1
    28    23    25    1
@<TRIPOS>MOLECULE
*****
 25 28 0 0 0
SMALL
GASTEIGER

@<TRIPOS>ATOM
      1 C         140.2091  142.5117  166.2859 C.ar    1  UNL1        0.0890
      2 C         139.8322  141.1638  165.7463 C.ar    1  UNL1        0.0401
      3 C         139.1059  141.0558  164.4383 C.ar    1  UNL1        0.1051
      4 N         138.7290  139.7080  163.8987 N.ar    1  UNL1       -0.2405
      5 C         138.0027  139.6001  162.5908 C.ar    1  UNL1        0.1195
      6 C         137.6532  140.8400  161.8224 C.ar    1  UNL1        0.1197
      7 N         138.0301  142.1879  162.3620 N.ar    1  UNL1       -0.2360
      8 C         138.7564  142.2958  163.6699 C.ar    1  UNL1        0.1519
      9 C         139.1333  143.6437  164.2096 C.ar    1  UNL1        0.2445
     10 N         139.8596  143.7516  165.5175 N.ar    1  UNL1       -0.2102
     11 C         143.9932  142.2906  169.9618 C.3     1  UNL1        0.1538
     12 N         142.6748  142.5180  169.2835 N.ar    1  UNL1       -0.2473
     13 C         142.3682  142.2498  167.8398 C.ar    1  UNL1        0.0982
     14 C         140.9354  142.6196  167.5939 C.ar    1  UNL1        0.0574
     15 C         140.3566  143.1163  168.8855 C.ar    1  UNL1        0.1231
     16 N         141.4316  143.0535  169.9297 N.ar    1  UNL1       -0.1675
     17 O         138.7838  144.8837  163.4412 O.3     1  UNL1       -0.4591
     18 C         139.7621  145.4588  162.4603 C.3     1  UNL1        0.2084
     19 C         141.2103  145.0748  162.5326 C.3     1  UNL1        0.0596
     20 C         142.0352  145.4792  163.7183 C.3     1  UNL1        0.0065
     21 C         143.4834  145.0952  163.7906 C.3     1  UNL1        0.0172
     22 C         144.1067  144.3068  162.6771 C.3     1  UNL1        0.0686
     23 N         143.2819  143.9025  161.4912 N.3     1  UNL1       -0.2974
     24 C         141.8336  144.2865  161.4190 C.3     1  UNL1        0.0723
     25 H         143.3195  142.8845  161.4397 H       1  UNL1        0.1232
@<TRIPOS>BOND
     1    11    12    1
     2    12    13   ar
     3    13    14   ar
     4    14     1    1
     5     1     2   ar
     6     2     3   ar
     7     3     4   ar
     8     4     5   ar
     9     5     6   ar
    10     6     7   ar
    11     7     8   ar
    12     8     9   ar
    13     9    17    1
    14    17    18    1
    15    19    18    1
    16    19    20    1
    17    20    21    1
    18    21    22    1
    19    22    23    1
    20    23    24    1
    21     9    10   ar
    22    14    15   ar
    23    15    16   ar
    24    16    12   ar
    25    10     1   ar
    26     8     3   ar
    27    24    19    1
    28    23    25    1
@<TRIPOS>MOLECULE
*****
 25 28 0 0 0
SMALL
GASTEIGER

@<TRIPOS>ATOM
      1 C         138.7049  141.1916  164.1300 C.ar    1  UNL1        0.0890
      2 C         138.7733  140.3412  162.8963 C.ar    1  UNL1        0.0401
      3 C         138.6519  140.9738  161.5416 C.ar    1  UNL1        0.1051
      4 N         138.7204  140.1234  160.3079 N.ar    1  UNL1       -0.2405
      5 C         138.5990  140.7560  158.9533 C.ar    1  UNL1        0.1195
      6 C         138.4091  142.2391  158.8324 C.ar    1  UNL1        0.1197
      7 N         138.3406  143.0895  160.0661 N.ar    1  UNL1       -0.2360
      8 C         138.4620  142.4569  161.4207 C.ar    1  UNL1        0.1519
      9 C         138.3936  143.3073  162.6545 C.ar    1  UNL1        0.2445
     10 N         138.5150  142.6747  164.0091 N.ar    1  UNL1       -0.2102
     11 C         140.2227  140.1916  169.0876 C.3     1  UNL1        0.1538
     12 N         139.5240  140.0994  167.7635 N.ar    1  UNL1       -0.2473
     13 C         139.7242  141.0185  166.5950 C.ar    1  UNL1        0.0982
     14 C         138.8263  140.5590  165.4848 C.ar    1  UNL1        0.0574
     15 C         138.0712  139.3560  165.9670 C.ar    1  UNL1        0.1231
     16 N         138.5024  139.0719  167.3753 N.ar    1  UNL1       -0.1675
     17 O         138.2037  144.7903  162.5336 O.3     1  UNL1       -0.4591
     18 C         139.3748  145.6732  162.2193 C.3     1  UNL1        0.2084
     19 C         140.7720  145.1550  162.3905 C.3     1  UNL1        0.0596
     20 C         141.4063  145.1434  163.7497 C.3     1  UNL1        0.0065
     21 C         142.8035  144.6252  163.9209 C.3     1  UNL1        0.0172
     22 C         143.5664  144.1187  162.7329 C.3     1  UNL1        0.0686
     23 N         142.9321  144.1303  161.3736 N.3     1  UNL1       -0.2974
     24 C         141.5349  144.6485  161.2024 C.3     1  UNL1        0.0723
     25 H         142.9315  143.1662  161.0407 H       1  UNL1        0.1232
@<TRIPOS>BOND
     1    11    12    1
     2    12    13   ar
     3    13    14   ar
     4    14     1    1
     5     1     2   ar
     6     2     3   ar
     7     3     4   ar
     8     4     5   ar
     9     5     6   ar
    10     6     7   ar
    11     7     8   ar
    12     8     9   ar
    13     9    17    1
    14    17    18    1
    15    19    18    1
    16    19    20    1
    17    20    21    1
    18    21    22    1
    19    22    23    1
    20    23    24    1
    21     9    10   ar
    22    14    15   ar
    23    15    16   ar
    24    16    12   ar
    25    10     1   ar
    26     8     3   ar
    27    24    19    1
    28    23    25    1
@<TRIPOS>MOLECULE
*****
 25 28 0 0 0
SMALL
GASTEIGER

@<TRIPOS>ATOM
      1 C         143.1042  141.5308  165.4746 C.ar    1  UNL1        0.0890
      2 C         143.5118  142.2573  166.7220 C.ar    1  UNL1        0.0401
      3 C         142.7239  142.0781  167.9858 C.ar    1  UNL1        0.1051
      4 N         143.1315  142.8046  169.2332 N.ar    1  UNL1       -0.2405
      5 C         142.3435  142.6254  170.4968 C.ar    1  UNL1        0.1195
      6 C         141.1479  141.7197  170.5131 C.ar    1  UNL1        0.1197
      7 N         140.7403  140.9932  169.2658 N.ar    1  UNL1       -0.2360
      8 C         141.5283  141.1724  168.0021 C.ar    1  UNL1        0.1519
      9 C         141.1207  140.4459  166.7546 C.ar    1  UNL1        0.2445
     10 N         141.9087  140.6251  165.4909 N.ar    1  UNL1       -0.2102
     11 C         144.3867  142.5987  160.4650 C.3     1  UNL1        0.1538
     12 N         144.4817  142.2009  161.9082 N.ar    1  UNL1       -0.2473
     13 C         143.3472  142.1634  162.8889 C.ar    1  UNL1        0.0982
     14 C         143.8922  141.7100  164.2108 C.ar    1  UNL1        0.0574
     15 C         145.3634  141.4673  164.0472 C.ar    1  UNL1        0.1231
     16 N         145.7277  141.7707  162.6241 N.ar    1  UNL1       -0.1675
     17 O         139.9251  139.5401  166.7709 O.3     1  UNL1       -0.4591
     18 C         138.6714  139.9401  166.0512 C.3     1  UNL1        0.2084
     19 C         138.4546  139.5146  164.6292 C.3     1  UNL1        0.0596
     20 C         138.9239  138.1659  164.1701 C.3     1  UNL1        0.0065
     21 C         138.7071  137.7404  162.7482 C.3     1  UNL1        0.0172
     22 C         138.0211  138.6635  161.7853 C.3     1  UNL1        0.0686
     23 N         137.5518  140.0123  162.2444 N.3     1  UNL1       -0.2974
     24 C         137.7685  140.4378  163.6664 C.3     1  UNL1        0.0723
     25 H         136.5463  140.0470  162.0767 H       1  UNL1        0.1232
@<TRIPOS>BOND
     1    11    12    1
     2    12    13   ar
     3    13    14   ar
     4    14     1    1
     5     1     2   ar
     6     2     3   ar
     7     3     4   ar
     8     4     5   ar
     9     5     6   ar
    10     6     7   ar
    11     7     8   ar
    12     8     9   ar
    13     9    17    1
    14    17    18    1
    15    19    18    1
    16    19    20    1
    17    20    21    1
    18    21    22    1
    19    22    23    1
    20    23    24    1
    21     9    10   ar
    22    14    15   ar
    23    15    16   ar
    24    16    12   ar
    25    10     1   ar
    26     8     3   ar
    27    24    19    1
    28    23    25    1
@<TRIPOS>MOLECULE
*****
 25 28 0 0 0
SMALL
GASTEIGER

@<TRIPOS>ATOM
      1 C         139.5637  140.1106  165.1856 C.ar    1  UNL1        0.0890
      2 C         139.0891  139.6336  166.5261 C.ar    1  UNL1        0.0401
      3 C         139.6805  140.2081  167.7792 C.ar    1  UNL1        0.1051
      4 N         139.2059  139.7310  169.1197 N.ar    1  UNL1       -0.2405
      5 C         139.7973  140.3055  170.3727 C.ar    1  UNL1        0.1195
      6 C         140.8635  141.3570  170.2852 C.ar    1  UNL1        0.1197
      7 N         141.3381  141.8340  168.9447 N.ar    1  UNL1       -0.2360
      8 C         140.7467  141.2596  167.6917 C.ar    1  UNL1        0.1519
      9 C         141.2214  141.7366  166.3511 C.ar    1  UNL1        0.2445
     10 N         140.6299  141.1622  165.0980 N.ar    1  UNL1       -0.2102
     11 C         137.3130  139.6949  160.4271 C.3     1  UNL1        0.1538
     12 N         137.9377  139.3451  161.7452 N.ar    1  UNL1       -0.2473
     13 C         138.4234  140.3196  162.7770 C.ar    1  UNL1        0.0982
     14 C         138.9723  139.5362  163.9324 C.ar    1  UNL1        0.0574
     15 C         138.8259  138.0775  163.6148 C.ar    1  UNL1        0.1231
     16 N         138.1865  137.9594  162.2630 N.ar    1  UNL1       -0.1675
     17 O         142.2875  142.7881  166.2636 O.3     1  UNL1       -0.4591
     18 C         143.6801  142.4119  165.8523 C.3     1  UNL1        0.2084
     19 C         144.0902  142.5130  164.4130 C.3     1  UNL1        0.0596
     20 C         143.2033  143.2152  163.4280 C.3     1  UNL1        0.0065
     21 C         143.6134  143.3163  161.9887 C.3     1  UNL1        0.0172
     22 C         144.9104  142.7153  161.5344 C.3     1  UNL1        0.0686
     23 N         145.7974  142.0130  162.5195 N.3     1  UNL1       -0.2974
     24 C         145.3873  141.9119  163.9588 C.3     1  UNL1        0.0723
     25 H         146.6960  142.4953  162.5025 H       1  UNL1        0.1232
@<TRIPOS>BOND
     1    11    12    1
     2    12    13   ar
     3    13    14   ar
     4    14     1    1
     5     1     2   ar
     6     2     3   ar
     7     3     4   ar
     8     4     5   ar
     9     5     6   ar
    10     6     7   ar
    11     7     8   ar
    12     8     9   ar
    13     9    17    1
    14    17    18    1
    15    19    18    1
    16    19    20    1
    17    20    21    1
    18    21    22    1
    19    22    23    1
    20    23    24    1
    21     9    10   ar
    22    14    15   ar
    23    15    16   ar
    24    16    12   ar
    25    10     1   ar
    26     8     3   ar
    27    24    19    1
    28    23    25    1
