@<TRIPOS>MOLECULE
*****
 26 29 0 0 0
SMALL
GASTEIGER

@<TRIPOS>ATOM
      1 C         138.3169  139.5874  165.3868 C.3     1  UNL1        0.0235
      2 C         139.0422  140.1991  166.5486 C.3     1  UNL1        0.0934
      3 C         138.3363  139.0738  167.2454 C.3     1  UNL1        0.0235
      4 N         139.5224  140.4200  167.9523 N.3     1  UNL1       -0.2936
      5 C         140.4566  141.5537  168.2558 C.3     1  UNL1        0.0736
      6 C         140.9106  142.4664  167.1555 C.3     1  UNL1        0.0463
      7 C         140.4304  142.2455  165.7518 C.ar    1  UNL1        0.0137
      8 C         139.4962  141.1119  165.4483 C.ar    1  UNL1        0.1313
      9 O         139.1932  141.1415  163.9795 O.2     1  UNL1       -0.4568
     10 C         139.9400  142.2934  163.3752 C.ar    1  UNL1        0.1459
     11 C         140.0227  142.8092  161.9691 C.ar    1  UNL1        0.0562
     12 C         140.8699  144.0073  161.6583 C.ar    1  UNL1        0.1133
     13 C         141.6345  144.6897  162.7536 C.ar    1  UNL1        0.0189
     14 C         141.5519  144.1739  164.1597 C.ar    1  UNL1        0.0041
     15 C         140.7047  142.9758  164.4705 C.ar    1  UNL1        0.0333
     16 H         139.9957  139.5634  168.2399 H       1  UNL1        0.1236
     17 S         140.9525  144.5231  160.2522 S.O2    1  UNL1        0.0276
     18 O         139.4551  144.5786  160.1845 O.2     1  UNL1       -0.1642
     19 O         142.4500  144.4676  160.3198 O.2     1  UNL1       -0.1642
     20 C         141.0351  145.0389  158.8460 C.ar    1  UNL1        0.1125
     21 C         142.1861  144.6443  157.9689 C.ar    1  UNL1        0.0189
     22 C         142.2687  145.1601  156.5628 C.ar    1  UNL1        0.0036
     23 C         141.2004  146.0705  156.0339 C.ar    1  UNL1        0.0297
     24 C         140.0494  146.4651  156.9111 C.ar    1  UNL1        0.1414
     25 F         138.9811  147.3755  156.3822 F       1  UNL1       -0.2041
     26 C         139.9668  145.9493  158.3171 C.ar    1  UNL1        0.0484
@<TRIPOS>BOND
     1     1     2    1
     2     2     3    1
     3     2     4    1
     4     4     5    1
     5     5     6    1
     6     6     7    1
     7     7     8   ar
     8     8     9   ar
     9     9    10   ar
    10    10    11   ar
    11    11    12   ar
    12    12    17    1
    13    17    18    2
    14    17    19    2
    15    17    20    1
    16    20    21   ar
    17    21    22   ar
    18    22    23   ar
    19    23    24   ar
    20    24    25    1
    21    24    26   ar
    22    12    13   ar
    23    13    14   ar
    24    14    15   ar
    25     8     2    1
    26    15    10   ar
    27    15     7   ar
    28    26    20   ar
    29     4    16    1
@<TRIPOS>MOLECULE
*****
 26 29 0 0 0
SMALL
GASTEIGER

@<TRIPOS>ATOM
      1 C         139.6619  140.4898  168.3542 C.3     1  UNL1        0.0235
      2 C         140.8521  140.8333  169.2000 C.3     1  UNL1        0.0934
      3 C         139.9940  140.1499  170.2231 C.3     1  UNL1        0.0235
      4 N         141.7444  140.9394  170.4011 N.3     1  UNL1       -0.2936
      5 C         143.0813  141.6097  170.2854 C.3     1  UNL1        0.0736
      6 C         143.5260  142.1738  168.9686 C.3     1  UNL1        0.0463
      7 C         142.6338  142.0677  167.7675 C.ar    1  UNL1        0.0137
      8 C         141.2969  141.3974  167.8832 C.ar    1  UNL1        0.1313
      9 O         140.6380  141.4418  166.5364 O.2     1  UNL1       -0.4568
     10 C         141.5677  142.1394  165.5883 C.ar    1  UNL1        0.1459
     11 C         141.4505  142.4725  164.1304 C.ar    1  UNL1        0.0562
     12 C         142.5668  143.1923  163.4334 C.ar    1  UNL1        0.1133
     13 C         143.8002  143.5791  164.1943 C.ar    1  UNL1        0.0189
     14 C         143.9174  143.2461  165.6522 C.ar    1  UNL1        0.0041
     15 C         142.8012  142.5262  166.3492 C.ar    1  UNL1        0.0333
     16 H         141.9191  139.9875  170.7231 H       1  UNL1        0.1236
     17 S         142.4495  143.5254  161.9755 S.O2    1  UNL1        0.0276
     18 O         143.6995  144.3500  162.0634 O.2     1  UNL1       -0.1642
     19 O         141.1996  142.7007  161.8876 O.2     1  UNL1       -0.1642
     20 C         142.3323  143.8584  160.5177 C.ar    1  UNL1        0.1125
     21 C         143.2407  143.1994  159.5225 C.ar    1  UNL1        0.0189
     22 C         143.1235  143.5324  158.0646 C.ar    1  UNL1        0.0036
     23 C         142.0979  144.5245  157.6020 C.ar    1  UNL1        0.0297
     24 C         141.1896  145.1835  158.5973 C.ar    1  UNL1        0.1414
     25 F         140.1640  146.1755  158.1347 F       1  UNL1       -0.2041
     26 C         141.3068  144.8505  160.0551 C.ar    1  UNL1        0.0484
@<TRIPOS>BOND
     1     1     2    1
     2     2     3    1
     3     2     4    1
     4     4     5    1
     5     5     6    1
     6     6     7    1
     7     7     8   ar
     8     8     9   ar
     9     9    10   ar
    10    10    11   ar
    11    11    12   ar
    12    12    17    1
    13    17    18    2
    14    17    19    2
    15    17    20    1
    16    20    21   ar
    17    21    22   ar
    18    22    23   ar
    19    23    24   ar
    20    24    25    1
    21    24    26   ar
    22    12    13   ar
    23    13    14   ar
    24    14    15   ar
    25     8     2    1
    26    15    10   ar
    27    15     7   ar
    28    26    20   ar
    29     4    16    1
@<TRIPOS>MOLECULE
*****
 26 29 0 0 0
SMALL
GASTEIGER

@<TRIPOS>ATOM
      1 C         139.7135  140.3459  168.1496 C.3     1  UNL1        0.0235
      2 C         140.7423  140.8758  169.1040 C.3     1  UNL1        0.0934
      3 C         139.7855  140.2488  170.0742 C.3     1  UNL1        0.0235
      4 N         141.4388  141.1879  170.3952 N.3     1  UNL1       -0.2936
      5 C         142.7349  141.9430  170.3849 C.3     1  UNL1        0.0736
      6 C         143.3345  142.3859  169.0833 C.3     1  UNL1        0.0463
      7 C         142.6380  142.0738  167.7920 C.ar    1  UNL1        0.0137
      8 C         141.3419  141.3187  167.8024 C.ar    1  UNL1        0.1313
      9 O         140.8882  141.1572  166.3818 O.2     1  UNL1       -0.4568
     10 C         141.9038  141.8124  165.4934 C.ar    1  UNL1        0.1459
     11 C         141.9836  141.9665  164.0035 C.ar    1  UNL1        0.0562
     12 C         143.1449  142.6870  163.3851 C.ar    1  UNL1        0.1133
     13 C         144.2263  143.2534  164.2567 C.ar    1  UNL1        0.0189
     14 C         144.1464  143.0994  165.7466 C.ar    1  UNL1        0.0041
     15 C         142.9852  142.3789  166.3650 C.ar    1  UNL1        0.0333
     16 H         141.6216  140.2956  170.8544 H       1  UNL1        0.1236
     17 S         143.2247  142.8410  161.8951 S.O2    1  UNL1        0.0276
     18 O         142.5636  141.5057  161.7217 O.2     1  UNL1       -0.1642
     19 O         143.8857  144.1763  162.0686 O.2     1  UNL1       -0.1642
     20 C         143.3045  142.9950  160.4052 C.ar    1  UNL1        0.1125
     21 C         142.2185  143.7200  159.6670 C.ar    1  UNL1        0.0189
     22 C         142.2984  143.8740  158.1770 C.ar    1  UNL1        0.0036
     23 C         143.4641  143.3031  157.4254 C.ar    1  UNL1        0.0297
     24 C         144.5501  142.5781  158.1637 C.ar    1  UNL1        0.1414
     25 F         145.7159  142.0072  157.4121 F       1  UNL1       -0.2041
     26 C         144.4703  142.4241  159.6535 C.ar    1  UNL1        0.0484
@<TRIPOS>BOND
     1     1     2    1
     2     2     3    1
     3     2     4    1
     4     4     5    1
     5     5     6    1
     6     6     7    1
     7     7     8   ar
     8     8     9   ar
     9     9    10   ar
    10    10    11   ar
    11    11    12   ar
    12    12    17    1
    13    17    18    2
    14    17    19    2
    15    17    20    1
    16    20    21   ar
    17    21    22   ar
    18    22    23   ar
    19    23    24   ar
    20    24    25    1
    21    24    26   ar
    22    12    13   ar
    23    13    14   ar
    24    14    15   ar
    25     8     2    1
    26    15    10   ar
    27    15     7   ar
    28    26    20   ar
    29     4    16    1
@<TRIPOS>MOLECULE
*****
 26 29 0 0 0
SMALL
GASTEIGER

@<TRIPOS>ATOM
      1 C         142.5303  139.5403  167.8104 C.3     1  UNL1        0.0235
      2 C         141.9517  140.4658  168.8394 C.3     1  UNL1        0.0934
      3 C         142.6001  139.4527  169.7356 C.3     1  UNL1        0.0235
      4 N         141.5982  141.0394  170.1795 N.3     1  UNL1       -0.2936
      5 C         140.7973  142.3048  170.2661 C.3     1  UNL1        0.0736
      6 C         140.3499  142.9965  169.0126 C.3     1  UNL1        0.0463
      7 C         140.7033  142.4228  167.6725 C.ar    1  UNL1        0.0137
      8 C         141.5042  141.1575  167.5859 C.ar    1  UNL1        0.1313
      9 O         141.7001  140.8313  166.1349 O.2     1  UNL1       -0.4568
     10 C         141.0203  141.8951  165.3248 C.ar    1  UNL1        0.1459
     11 C         140.8826  142.0951  163.8446 C.ar    1  UNL1        0.0562
     12 C         140.1289  143.2788  163.3146 C.ar    1  UNL1        0.1133
     13 C         139.5129  144.2624  164.2649 C.ar    1  UNL1        0.0189
     14 C         139.6505  144.0623  165.7451 C.ar    1  UNL1        0.0041
     15 C         140.4043  142.8787  166.2751 C.ar    1  UNL1        0.0333
     16 H         142.4774  141.2135  170.6664 H       1  UNL1        0.1236
     17 S         139.9912  143.4789  161.8344 S.O2    1  UNL1        0.0276
     18 O         141.1659  142.5753  161.6030 O.2     1  UNL1       -0.1642
     19 O         138.8164  144.3824  162.0658 O.2     1  UNL1       -0.1642
     20 C         139.8535  143.6789  160.3542 C.ar    1  UNL1        0.1125
     21 C         139.0814  142.6898  159.5324 C.ar    1  UNL1        0.0189
     22 C         138.9437  142.8899  158.0521 C.ar    1  UNL1        0.0036
     23 C         139.5781  144.0790  157.3938 C.ar    1  UNL1        0.0297
     24 C         140.3503  145.0681  158.2157 C.ar    1  UNL1        0.1414
     25 F         140.9847  146.2573  157.5574 F       1  UNL1       -0.2041
     26 C         140.4879  144.8681  159.6959 C.ar    1  UNL1        0.0484
@<TRIPOS>BOND
     1     1     2    1
     2     2     3    1
     3     2     4    1
     4     4     5    1
     5     5     6    1
     6     6     7    1
     7     7     8   ar
     8     8     9   ar
     9     9    10   ar
    10    10    11   ar
    11    11    12   ar
    12    12    17    1
    13    17    18    2
    14    17    19    2
    15    17    20    1
    16    20    21   ar
    17    21    22   ar
    18    22    23   ar
    19    23    24   ar
    20    24    25    1
    21    24    26   ar
    22    12    13   ar
    23    13    14   ar
    24    14    15   ar
    25     8     2    1
    26    15    10   ar
    27    15     7   ar
    28    26    20   ar
    29     4    16    1
@<TRIPOS>MOLECULE
*****
 26 29 0 0 0
SMALL
GASTEIGER

@<TRIPOS>ATOM
      1 C         140.9218  145.2054  159.9879 C.3     1  UNL1        0.0235
      2 C         142.0116  144.5519  159.1909 C.3     1  UNL1        0.0934
      3 C         141.5324  145.5658  158.1946 C.3     1  UNL1        0.0235
      4 N         142.9350  144.2505  158.0479 N.3     1  UNL1       -0.2936
      5 C         143.9590  143.1622  158.1779 C.3     1  UNL1        0.0736
      6 C         144.0596  142.3752  159.4509 C.3     1  UNL1        0.0463
      7 C         143.1363  142.6766  160.5939 C.ar    1  UNL1        0.0137
      8 C         142.1122  143.7650  160.4639 C.ar    1  UNL1        0.1313
      9 O         141.3440  143.8346  161.7503 O.2     1  UNL1       -0.4568
     10 C         141.8933  142.7894  162.6754 C.ar    1  UNL1        0.1459
     11 C         141.5279  142.3968  164.0763 C.ar    1  UNL1        0.0562
     12 C         142.2702  141.2886  164.7624 C.ar    1  UNL1        0.1133
     13 C         143.3778  140.5729  164.0476 C.ar    1  UNL1        0.0189
     14 C         143.7432  140.9655  162.6468 C.ar    1  UNL1        0.0041
     15 C         143.0009  142.0737  161.9607 C.ar    1  UNL1        0.0333
     16 H         143.4439  145.1110  157.8457 H       1  UNL1        0.1236
     17 S         141.9048  140.8960  166.1633 S.O2    1  UNL1        0.0276
     18 O         142.7066  139.6364  166.0194 O.2     1  UNL1       -0.1642
     19 O         141.1030  142.1555  166.3071 O.2     1  UNL1       -0.1642
     20 C         141.5394  140.5034  167.5642 C.ar    1  UNL1        0.1125
     21 C         142.5253  139.7604  168.4161 C.ar    1  UNL1        0.0189
     22 C         142.1599  139.3678  169.8169 C.ar    1  UNL1        0.0036
     23 C         140.8087  139.7183  170.3658 C.ar    1  UNL1        0.0297
     24 C         139.8228  140.4613  169.5138 C.ar    1  UNL1        0.1414
     25 F         138.4716  140.8118  170.0627 F       1  UNL1       -0.2041
     26 C         140.1882  140.8539  168.1130 C.ar    1  UNL1        0.0484
@<TRIPOS>BOND
     1     1     2    1
     2     2     3    1
     3     2     4    1
     4     4     5    1
     5     5     6    1
     6     6     7    1
     7     7     8   ar
     8     8     9   ar
     9     9    10   ar
    10    10    11   ar
    11    11    12   ar
    12    12    17    1
    13    17    18    2
    14    17    19    2
    15    17    20    1
    16    20    21   ar
    17    21    22   ar
    18    22    23   ar
    19    23    24   ar
    20    24    25    1
    21    24    26   ar
    22    12    13   ar
    23    13    14   ar
    24    14    15   ar
    25     8     2    1
    26    15    10   ar
    27    15     7   ar
    28    26    20   ar
    29     4    16    1
@<TRIPOS>MOLECULE
*****
 26 29 0 0 0
SMALL
GASTEIGER

@<TRIPOS>ATOM
      1 C         144.0538  141.8737  159.6446 C.3     1  UNL1        0.0235
      2 C         143.6967  140.5200  159.1059 C.3     1  UNL1        0.0934
      3 C         144.4396  141.0809  157.9296 C.3     1  UNL1        0.0235
      4 N         143.5976  139.3612  158.1587 N.3     1  UNL1       -0.2936
      5 C         142.8797  138.1116  158.5749 C.3     1  UNL1        0.0736
      6 C         142.2609  138.0209  159.9382 C.3     1  UNL1        0.0463
      7 C         142.3600  139.1798  160.8854 C.ar    1  UNL1        0.0137
      8 C         143.0779  140.4293  160.4692 C.ar    1  UNL1        0.1313
      9 O         143.0143  141.4020  161.6094 O.2     1  UNL1       -0.4568
     10 C         142.2572  140.7536  162.7302 C.ar    1  UNL1        0.1459
     11 C         141.8837  141.2363  164.1005 C.ar    1  UNL1        0.0562
     12 C         141.1058  140.3456  165.0233 C.ar    1  UNL1        0.1133
     13 C         140.7014  138.9722  164.5758 C.ar    1  UNL1        0.0189
     14 C         141.0749  138.4895  163.2056 C.ar    1  UNL1        0.0041
     15 C         141.8528  139.3802  162.2828 C.ar    1  UNL1        0.0333
     16 H         144.5526  139.0885  157.9261 H       1  UNL1        0.1236
     17 S         140.7324  140.8283  166.3935 S.O2    1  UNL1        0.0276
     18 O         139.5372  139.9219  166.3870 O.2     1  UNL1       -0.1642
     19 O         141.9275  141.7347  166.3999 O.2     1  UNL1       -0.1642
     20 C         140.3589  141.3110  167.7637 C.ar    1  UNL1        0.1125
     21 C         139.6134  140.4069  168.7000 C.ar    1  UNL1        0.0189
     22 C         139.2399  140.8896  170.0702 C.ar    1  UNL1        0.0036
     23 C         139.6120  142.2764  170.5041 C.ar    1  UNL1        0.0297
     24 C         140.3575  143.1805  169.5678 C.ar    1  UNL1        0.1414
     25 F         140.7296  144.5673  170.0017 F       1  UNL1       -0.2041
     26 C         140.7310  142.6978  168.1976 C.ar    1  UNL1        0.0484
@<TRIPOS>BOND
     1     1     2    1
     2     2     3    1
     3     2     4    1
     4     4     5    1
     5     5     6    1
     6     6     7    1
     7     7     8   ar
     8     8     9   ar
     9     9    10   ar
    10    10    11   ar
    11    11    12   ar
    12    12    17    1
    13    17    18    2
    14    17    19    2
    15    17    20    1
    16    20    21   ar
    17    21    22   ar
    18    22    23   ar
    19    23    24   ar
    20    24    25    1
    21    24    26   ar
    22    12    13   ar
    23    13    14   ar
    24    14    15   ar
    25     8     2    1
    26    15    10   ar
    27    15     7   ar
    28    26    20   ar
    29     4    16    1
@<TRIPOS>MOLECULE
*****
 26 29 0 0 0
SMALL
GASTEIGER

@<TRIPOS>ATOM
      1 C         144.2990  141.6104  159.1383 C.3     1  UNL1        0.0235
      2 C         143.8855  140.3637  158.4139 C.3     1  UNL1        0.0934
      3 C         144.5376  141.1137  157.2903 C.3     1  UNL1        0.0235
      4 N         143.6985  139.3775  157.2993 N.3     1  UNL1       -0.2936
      5 C         143.0030  138.0742  157.5598 C.3     1  UNL1        0.0736
      6 C         142.4945  137.7572  158.9349 C.3     1  UNL1        0.0463
      7 C         142.6816  138.7434  160.0495 C.ar    1  UNL1        0.0137
      8 C         143.3771  140.0466  159.7890 C.ar    1  UNL1        0.1313
      9 O         143.4155  140.8168  161.0756 O.2     1  UNL1       -0.4568
     10 C         142.7438  139.9896  162.1313 C.ar    1  UNL1        0.1459
     11 C         142.4865  140.2376  163.5881 C.ar    1  UNL1        0.0562
     12 C         141.7757  139.2042  164.4107 C.ar    1  UNL1        0.1133
     13 C         141.3221  137.9227  163.7765 C.ar    1  UNL1        0.0189
     14 C         141.5794  137.6747  162.3197 C.ar    1  UNL1        0.0041
     15 C         142.2902  138.7081  161.4971 C.ar    1  UNL1        0.0333
     16 H         144.6287  139.1498  156.9484 H       1  UNL1        0.1236
     17 S         141.5184  139.4522  165.8676 S.O2    1  UNL1        0.0276
     18 O         142.9191  139.9646  166.0277 O.2     1  UNL1       -0.1642
     19 O         140.1178  138.9397  165.7075 O.2     1  UNL1       -0.1642
     20 C         141.2612  139.7002  167.3244 C.ar    1  UNL1        0.1125
     21 C         139.8819  140.0592  167.7919 C.ar    1  UNL1        0.0189
     22 C         139.6247  140.3072  169.2487 C.ar    1  UNL1        0.0036
     23 C         140.7467  140.1962  170.2380 C.ar    1  UNL1        0.0297
     24 C         142.1260  139.8371  169.7704 C.ar    1  UNL1        0.1414
     25 F         143.2480  139.7261  170.7597 F       1  UNL1       -0.2041
     26 C         142.3832  139.5892  168.3137 C.ar    1  UNL1        0.0484
@<TRIPOS>BOND
     1     1     2    1
     2     2     3    1
     3     2     4    1
     4     4     5    1
     5     5     6    1
     6     6     7    1
     7     7     8   ar
     8     8     9   ar
     9     9    10   ar
    10    10    11   ar
    11    11    12   ar
    12    12    17    1
    13    17    18    2
    14    17    19    2
    15    17    20    1
    16    20    21   ar
    17    21    22   ar
    18    22    23   ar
    19    23    24   ar
    20    24    25    1
    21    24    26   ar
    22    12    13   ar
    23    13    14   ar
    24    14    15   ar
    25     8     2    1
    26    15    10   ar
    27    15     7   ar
    28    26    20   ar
    29     4    16    1
@<TRIPOS>MOLECULE
*****
 26 29 0 0 0
SMALL
GASTEIGER

@<TRIPOS>ATOM
      1 C         141.0581  145.3073  159.6640 C.3     1  UNL1        0.0235
      2 C         140.1343  144.3552  158.9638 C.3     1  UNL1        0.0934
      3 C         140.2976  145.3939  157.8940 C.3     1  UNL1        0.0235
      4 N         139.2672  143.7639  157.8922 N.3     1  UNL1       -0.2936
      5 C         138.5577  142.4646  158.1334 C.3     1  UNL1        0.0736
      6 C         138.7152  141.7565  159.4464 C.3     1  UNL1        0.0463
      7 C         139.5822  142.3479  160.5180 C.ar    1  UNL1        0.0137
      8 C         140.2918  143.6472  160.2768 C.ar    1  UNL1        0.1313
      9 O         141.0736  143.9846  161.5116 O.2     1  UNL1       -0.4568
     10 C         140.8473  142.8939  162.5161 C.ar    1  UNL1        0.1459
     11 C         141.3614  142.6910  163.9106 C.ar    1  UNL1        0.0562
     12 C         140.9538  141.4766  164.6910 C.ar    1  UNL1        0.1133
     13 C         140.0320  140.4650  164.0769 C.ar    1  UNL1        0.0189
     14 C         139.5179  140.6679  162.6824 C.ar    1  UNL1        0.0041
     15 C         139.9255  141.8823  161.9020 C.ar    1  UNL1        0.0333
     16 H         139.8615  143.6275  157.0745 H       1  UNL1        0.1236
     17 S         141.4679  141.2738  166.0855 S.O2    1  UNL1        0.0276
     18 O         140.4017  140.2472  166.3292 O.2     1  UNL1       -0.1642
     19 O         142.5341  142.3003  165.8417 O.2     1  UNL1       -0.1642
     20 C         141.9820  141.0709  167.4799 C.ar    1  UNL1        0.1125
     21 C         141.5670  139.8612  168.2636 C.ar    1  UNL1        0.0189
     22 C         142.0812  139.6584  169.6581 C.ar    1  UNL1        0.0036
     23 C         143.0102  140.6653  170.2688 C.ar    1  UNL1        0.0297
     24 C         143.4252  141.8750  169.4850 C.ar    1  UNL1        0.1414
     25 F         144.3542  142.8819  170.0957 F       1  UNL1       -0.2041
     26 C         142.9111  142.0778  168.0906 C.ar    1  UNL1        0.0484
@<TRIPOS>BOND
     1     1     2    1
     2     2     3    1
     3     2     4    1
     4     4     5    1
     5     5     6    1
     6     6     7    1
     7     7     8   ar
     8     8     9   ar
     9     9    10   ar
    10    10    11   ar
    11    11    12   ar
    12    12    17    1
    13    17    18    2
    14    17    19    2
    15    17    20    1
    16    20    21   ar
    17    21    22   ar
    18    22    23   ar
    19    23    24   ar
    20    24    25    1
    21    24    26   ar
    22    12    13   ar
    23    13    14   ar
    24    14    15   ar
    25     8     2    1
    26    15    10   ar
    27    15     7   ar
    28    26    20   ar
    29     4    16    1
@<TRIPOS>MOLECULE
*****
 26 29 0 0 0
SMALL
GASTEIGER

@<TRIPOS>ATOM
      1 C         139.3479  139.9721  168.1217 C.3     1  UNL1        0.0235
      2 C         140.3527  140.8002  168.8665 C.3     1  UNL1        0.0934
      3 C         139.3725  140.5266  169.9685 C.3     1  UNL1        0.0235
      4 N         141.0171  141.5332  169.9940 N.3     1  UNL1       -0.2936
      5 C         142.3127  142.2523  169.7609 C.3     1  UNL1        0.0736
      6 C         142.9440  142.2383  168.4003 C.3     1  UNL1        0.0463
      7 C         142.2796  141.5053  167.2728 C.ar    1  UNL1        0.0137
      8 C         140.9840  140.7863  167.5059 C.ar    1  UNL1        0.1313
      9 O         140.5655  140.1539  166.2117 O.2     1  UNL1       -0.4568
     10 C         141.6025  140.4821  165.1787 C.ar    1  UNL1        0.1459
     11 C         141.7189  140.1283  163.7257 C.ar    1  UNL1        0.0562
     12 C         142.8947  140.6098  162.9285 C.ar    1  UNL1        0.1133
     13 C         143.9541  141.4450  163.5843 C.ar    1  UNL1        0.0189
     14 C         143.8376  141.7988  165.0373 C.ar    1  UNL1        0.0041
     15 C         142.6618  141.3173  165.8346 C.ar    1  UNL1        0.0333
     16 H         141.1888  140.8482  170.7299 H       1  UNL1        0.1236
     17 S         143.0112  140.2560  161.4754 S.O2    1  UNL1        0.0276
     18 O         144.5065  140.2605  161.5942 O.2     1  UNL1       -0.1642
     19 O         141.5159  140.2516  161.3567 O.2     1  UNL1       -0.1642
     20 C         143.1277  139.9023  160.0224 C.ar    1  UNL1        0.1125
     21 C         143.8061  140.8448  159.0731 C.ar    1  UNL1        0.0189
     22 C         143.9226  140.4910  157.6201 C.ar    1  UNL1        0.0036
     23 C         143.3606  139.1947  157.1164 C.ar    1  UNL1        0.0297
     24 C         142.6821  138.2522  158.0657 C.ar    1  UNL1        0.1414
     25 F         142.1200  136.9560  157.5620 F       1  UNL1       -0.2041
     26 C         142.5656  138.6060  159.5187 C.ar    1  UNL1        0.0484
@<TRIPOS>BOND
     1     1     2    1
     2     2     3    1
     3     2     4    1
     4     4     5    1
     5     5     6    1
     6     6     7    1
     7     7     8   ar
     8     8     9   ar
     9     9    10   ar
    10    10    11   ar
    11    11    12   ar
    12    12    17    1
    13    17    18    2
    14    17    19    2
    15    17    20    1
    16    20    21   ar
    17    21    22   ar
    18    22    23   ar
    19    23    24   ar
    20    24    25    1
    21    24    26   ar
    22    12    13   ar
    23    13    14   ar
    24    14    15   ar
    25     8     2    1
    26    15    10   ar
    27    15     7   ar
    28    26    20   ar
    29     4    16    1
