@<TRIPOS>MOLECULE
*****
 17 19 0 0 0
SMALL
GASTEIGER

@<TRIPOS>ATOM
      1 C         140.4849  139.9687  168.6097 C.3     1  UNL1        0.0347
      2 C         141.4587  139.8319  167.4770 C.3     1  UNL1        0.0054
      3 C         142.7832  139.4244  168.0511 C.3     1  UNL1        0.0004
      4 C         142.6280  139.3093  169.5386 C.3     1  UNL1        0.0017
      5 C         141.2075  139.6457  169.8838 C.3     1  UNL1        0.0208
      6 C         140.2337  139.7825  171.0165 C.3     1  UNL1        0.0689
      7 N         138.9091  140.1900  170.4424 N.3     1  UNL1       -0.2972
      8 C         139.0644  140.3051  168.9549 C.3     1  UNL1        0.0726
      9 H         138.6252  141.0892  170.8313 H       1  UNL1        0.1233
     10 CL        137.5940  141.2603  163.5132 Cl      1  UNL1       -0.0814
     11 C         138.3167  140.9374  164.7872 C.ar    1  UNL1        0.0682
     12 C         138.0988  139.6138  165.4584 C.ar    1  UNL1        0.0119
     13 C         138.8215  139.2909  166.7325 C.ar    1  UNL1       -0.0033
     14 C         139.7622  140.2917  167.3355 C.ar    1  UNL1       -0.0206
     15 C         139.9801  141.6153  166.6644 C.ar    1  UNL1        0.0080
     16 C         139.2574  141.9382  165.3903 C.ar    1  UNL1        0.0679
     17 CL        139.4753  143.2619  164.7192 Cl      1  UNL1       -0.0814
@<TRIPOS>BOND
     1    10    11    1
     2    11    12   ar
     3    12    13   ar
     4    13    14   ar
     5     1    14    1
     6     1     2    1
     7     2     3    1
     8     3     4    1
     9     5     4    1
    10     5     6    1
    11     6     7    1
    12     7     8    1
    13    14    15   ar
    14    15    16   ar
    15    16    17    1
    16    16    11   ar
    17     5     1    1
    18     8     1    1
    19     7     9    1
@<TRIPOS>MOLECULE
*****
 17 19 0 0 0
SMALL
GASTEIGER

@<TRIPOS>ATOM
      1 C         138.5889  139.4717  163.6378 C.3     1  UNL1        0.0347
      2 C         139.5507  138.4264  164.1197 C.3     1  UNL1        0.0054
      3 C         139.9299  137.5701  162.9479 C.3     1  UNL1        0.0004
      4 C         139.2026  138.0863  161.7419 C.3     1  UNL1        0.0017
      5 C         138.3738  139.2616  162.1682 C.3     1  UNL1        0.0208
      6 C         137.4121  140.3070  161.6863 C.3     1  UNL1        0.0689
      7 N         137.0327  141.1633  162.8581 N.3     1  UNL1       -0.2972
      8 C         137.7601  140.6470  164.0642 C.3     1  UNL1        0.0726
      9 H         136.0259  141.1119  163.0129 H       1  UNL1        0.1233
     10 CL        139.4490  140.3124  169.5160 Cl      1  UNL1       -0.0814
     11 C         139.2340  140.1023  168.0465 C.ar    1  UNL1        0.0682
     12 C         138.2672  139.0584  167.5717 C.ar    1  UNL1        0.0119
     13 C         138.0522  138.8482  166.1021 C.ar    1  UNL1       -0.0033
     14 C         138.8040  139.6820  165.1074 C.ar    1  UNL1       -0.0206
     15 C         139.7708  140.7259  165.5822 C.ar    1  UNL1        0.0080
     16 C         139.9858  140.9360  167.0516 C.ar    1  UNL1        0.0679
     17 CL        140.9527  141.9799  167.5264 Cl      1  UNL1       -0.0814
@<TRIPOS>BOND
     1    10    11    1
     2    11    12   ar
     3    12    13   ar
     4    13    14   ar
     5     1    14    1
     6     1     2    1
     7     2     3    1
     8     3     4    1
     9     5     4    1
    10     5     6    1
    11     6     7    1
    12     7     8    1
    13    14    15   ar
    14    15    16   ar
    15    16    17    1
    16    16    11   ar
    17     5     1    1
    18     8     1    1
    19     7     9    1
@<TRIPOS>MOLECULE
*****
 17 19 0 0 0
SMALL
GASTEIGER

@<TRIPOS>ATOM
      1 C         140.3052  139.2704  166.1538 C.3     1  UNL1        0.0347
      2 C         138.9441  139.4542  166.7569 C.3     1  UNL1        0.0054
      3 C         138.0411  138.3971  166.1937 C.3     1  UNL1        0.0004
      4 C         138.8440  137.5600  165.2426 C.3     1  UNL1        0.0017
      5 C         140.2433  138.0998  165.2179 C.3     1  UNL1        0.0208
      6 C         141.6044  137.9160  164.6149 C.3     1  UNL1        0.0689
      7 N         142.5075  138.9731  165.1780 N.3     1  UNL1       -0.2972
      8 C         141.7045  139.8101  166.1291 C.3     1  UNL1        0.0726
      9 H         142.8695  139.5568  164.4239 H       1  UNL1        0.1233
     10 CL        140.5529  143.9530  169.8969 Cl      1  UNL1       -0.0814
     11 C         140.4910  142.7824  168.9612 C.ar    1  UNL1        0.0682
     12 C         140.3686  143.0091  167.4835 C.ar    1  UNL1        0.0119
     13 C         140.3067  141.8384  166.5477 C.ar    1  UNL1       -0.0033
     14 C         140.3671  140.4410  167.0897 C.ar    1  UNL1       -0.0206
     15 C         140.4895  140.2144  168.5674 C.ar    1  UNL1        0.0080
     16 C         140.5514  141.3850  169.5031 C.ar    1  UNL1        0.0679
     17 CL        140.6737  141.1583  170.9808 Cl      1  UNL1       -0.0814
@<TRIPOS>BOND
     1    10    11    1
     2    11    12   ar
     3    12    13   ar
     4    13    14   ar
     5     1    14    1
     6     1     2    1
     7     2     3    1
     8     3     4    1
     9     5     4    1
    10     5     6    1
    11     6     7    1
    12     7     8    1
    13    14    15   ar
    14    15    16   ar
    15    16    17    1
    16    16    11   ar
    17     5     1    1
    18     8     1    1
    19     7     9    1
@<TRIPOS>MOLECULE
*****
 17 19 0 0 0
SMALL
GASTEIGER

@<TRIPOS>ATOM
      1 C         139.4610  142.4067  165.5269 C.3     1  UNL1        0.0347
      2 C         139.7676  143.8277  165.8966 C.3     1  UNL1        0.0054
      3 C         138.8333  144.7176  165.1317 C.3     1  UNL1        0.0004
      4 C         137.9492  143.8466  164.2892 C.3     1  UNL1        0.0017
      5 C         138.3371  142.4183  164.5335 C.3     1  UNL1        0.0208
      6 C         138.0305  140.9973  164.1637 C.3     1  UNL1        0.0689
      7 N         138.9649  140.1074  164.9287 N.3     1  UNL1       -0.2972
      8 C         139.8489  140.9785  165.7711 C.3     1  UNL1        0.0726
      9 H         139.5327  139.5624  164.2799 H       1  UNL1        0.1233
     10 CL        143.9564  142.3597  169.5003 Cl      1  UNL1       -0.0814
     11 C         142.8326  142.3715  168.5070 C.ar    1  UNL1        0.0682
     12 C         143.1234  142.2170  167.0436 C.ar    1  UNL1        0.0119
     13 C         141.9995  142.2287  166.0503 C.ar    1  UNL1       -0.0033
     14 C         140.5848  142.3950  166.5203 C.ar    1  UNL1       -0.0206
     15 C         140.2940  142.5495  167.9837 C.ar    1  UNL1        0.0080
     16 C         141.4178  142.5377  168.9770 C.ar    1  UNL1        0.0679
     17 CL        141.1270  142.6922  170.4404 Cl      1  UNL1       -0.0814
@<TRIPOS>BOND
     1    10    11    1
     2    11    12   ar
     3    12    13   ar
     4    13    14   ar
     5     1    14    1
     6     1     2    1
     7     2     3    1
     8     3     4    1
     9     5     4    1
    10     5     6    1
    11     6     7    1
    12     7     8    1
    13    14    15   ar
    14    15    16   ar
    15    16    17    1
    16    16    11   ar
    17     5     1    1
    18     8     1    1
    19     7     9    1
@<TRIPOS>MOLECULE
*****
 17 19 0 0 0
SMALL
GASTEIGER

@<TRIPOS>ATOM
      1 C         141.5179  140.4506  168.7350 C.3     1  UNL1        0.0347
      2 C         140.6110  140.0703  167.6024 C.3     1  UNL1        0.0054
      3 C         139.2134  139.9768  168.1390 C.3     1  UNL1        0.0004
      4 C         139.2566  140.2993  169.6033 C.3     1  UNL1        0.0017
      5 C         140.6809  140.5921  169.9717 C.3     1  UNL1        0.0208
      6 C         141.5878  140.9724  171.1043 C.3     1  UNL1        0.0689
      7 N         142.9854  141.0659  170.5676 N.3     1  UNL1       -0.2972
      8 C         142.9422  140.7434  169.1033 C.3     1  UNL1        0.0726
      9 H         143.5873  140.3993  171.0513 H       1  UNL1        0.1233
     10 CL        144.8664  139.8844  163.7886 Cl      1  UNL1       -0.0814
     11 C         144.0293  140.0259  165.0251 C.ar    1  UNL1        0.0682
     12 C         143.6957  138.8166  165.8475 C.ar    1  UNL1        0.0119
     13 C         142.8586  138.9582  167.0841 C.ar    1  UNL1       -0.0033
     14 C         142.3550  140.3091  167.4983 C.ar    1  UNL1       -0.0206
     15 C         142.6886  141.5184  166.6760 C.ar    1  UNL1        0.0080
     16 C         143.5257  141.3768  165.4394 C.ar    1  UNL1        0.0679
     17 CL        143.8593  142.5861  164.6170 Cl      1  UNL1       -0.0814
@<TRIPOS>BOND
     1    10    11    1
     2    11    12   ar
     3    12    13   ar
     4    13    14   ar
     5     1    14    1
     6     1     2    1
     7     2     3    1
     8     3     4    1
     9     5     4    1
    10     5     6    1
    11     6     7    1
    12     7     8    1
    13    14    15   ar
    14    15    16   ar
    15    16    17    1
    16    16    11   ar
    17     5     1    1
    18     8     1    1
    19     7     9    1
@<TRIPOS>MOLECULE
*****
 17 19 0 0 0
SMALL
GASTEIGER

@<TRIPOS>ATOM
      1 C         140.2641  141.9480  168.7083 C.3     1  UNL1        0.0347
      2 C         140.8265  143.3347  168.8111 C.3     1  UNL1        0.0054
      3 C         140.4219  143.9017  170.1395 C.3     1  UNL1        0.0004
      4 C         139.6094  142.8653  170.8578 C.3     1  UNL1        0.0017
      5 C         139.5119  141.6579  169.9733 C.3     1  UNL1        0.0208
      6 C         138.9494  140.2711  169.8705 C.3     1  UNL1        0.0689
      7 N         139.3540  139.7041  168.5420 N.3     1  UNL1       -0.2972
      8 C         140.1665  140.7405  167.8237 C.3     1  UNL1        0.0726
      9 H         138.5235  139.4756  167.9957 H       1  UNL1        0.1233
     10 CL        143.2729  143.1079  163.6486 Cl      1  UNL1       -0.0814
     11 C         142.5207  142.8179  164.9134 C.ar    1  UNL1        0.0682
     12 C         143.2092  142.1295  166.0544 C.ar    1  UNL1        0.0119
     13 C         142.4570  141.8395  167.3194 C.ar    1  UNL1       -0.0033
     14 C         141.0162  142.2380  167.4433 C.ar    1  UNL1       -0.0206
     15 C         140.3277  142.9264  166.3023 C.ar    1  UNL1        0.0080
     16 C         141.0799  143.2164  165.0374 C.ar    1  UNL1        0.0679
     17 CL        140.3913  143.9049  163.8964 Cl      1  UNL1       -0.0814
@<TRIPOS>BOND
     1    10    11    1
     2    11    12   ar
     3    12    13   ar
     4    13    14   ar
     5     1    14    1
     6     1     2    1
     7     2     3    1
     8     3     4    1
     9     5     4    1
    10     5     6    1
    11     6     7    1
    12     7     8    1
    13    14    15   ar
    14    15    16   ar
    15    16    17    1
    16    16    11   ar
    17     5     1    1
    18     8     1    1
    19     7     9    1
@<TRIPOS>MOLECULE
*****
 17 19 0 0 0
SMALL
GASTEIGER

@<TRIPOS>ATOM
      1 C         140.4062  139.2578  166.0993 C.3     1  UNL1        0.0347
      2 C         141.8398  139.6455  166.3102 C.3     1  UNL1        0.0054
      3 C         142.6948  138.7193  165.4972 C.3     1  UNL1        0.0004
      4 C         141.7897  137.7592  164.7838 C.3     1  UNL1        0.0017
      5 C         140.3752  138.0920  165.1559 C.3     1  UNL1        0.0208
      6 C         138.9416  137.7043  164.9450 C.3     1  UNL1        0.0689
      7 N         138.0865  138.6305  165.7580 N.3     1  UNL1       -0.2972
      8 C         138.9917  139.5906  166.4714 C.3     1  UNL1        0.0726
      9 H         137.5453  138.0954  166.4371 H       1  UNL1        0.1233
     10 CL        140.5297  143.9212  169.8724 Cl      1  UNL1       -0.0814
     11 C         140.4988  142.7554  168.9292 C.ar    1  UNL1        0.0682
     12 C         140.4101  142.9894  167.4502 C.ar    1  UNL1        0.0119
     13 C         140.3792  141.8235  166.5069 C.ar    1  UNL1       -0.0033
     14 C         140.4371  140.4237  167.0426 C.ar    1  UNL1       -0.0206
     15 C         140.5258  140.1897  168.5216 C.ar    1  UNL1        0.0080
     16 C         140.5567  141.3555  169.4648 C.ar    1  UNL1        0.0679
     17 CL        140.6454  141.1215  170.9438 Cl      1  UNL1       -0.0814
@<TRIPOS>BOND
     1    10    11    1
     2    11    12   ar
     3    12    13   ar
     4    13    14   ar
     5     1    14    1
     6     1     2    1
     7     2     3    1
     8     3     4    1
     9     5     4    1
    10     5     6    1
    11     6     7    1
    12     7     8    1
    13    14    15   ar
    14    15    16   ar
    15    16    17    1
    16    16    11   ar
    17     5     1    1
    18     8     1    1
    19     7     9    1
@<TRIPOS>MOLECULE
*****
 17 19 0 0 0
SMALL
GASTEIGER

@<TRIPOS>ATOM
      1 C         139.9881  139.9093  166.8675 C.3     1  UNL1        0.0347
      2 C         141.1629  140.4591  166.1142 C.3     1  UNL1        0.0054
      3 C         141.0795  139.9648  164.7005 C.3     1  UNL1        0.0004
      4 C         139.8532  139.1094  164.5801 C.3     1  UNL1        0.0017
      5 C         139.1787  139.0751  165.9194 C.3     1  UNL1        0.0208
      6 C         138.0039  138.5252  166.6728 C.3     1  UNL1        0.0689
      7 N         138.0872  139.0196  168.0866 N.3     1  UNL1       -0.2972
      8 C         139.3136  139.8750  168.2069 C.3     1  UNL1        0.0726
      9 H         138.1530  138.2282  168.7267 H       1  UNL1        0.1233
     10 CL        143.2259  143.2457  170.6603 Cl      1  UNL1       -0.0814
     11 C         142.4165  142.4116  169.7121 C.ar    1  UNL1        0.0682
     12 C         142.9816  141.1332  169.1679 C.ar    1  UNL1        0.0119
     13 C         142.1721  140.2991  168.2197 C.ar    1  UNL1       -0.0033
     14 C         140.7975  140.7434  167.8158 C.ar    1  UNL1       -0.0206
     15 C         140.2325  142.0219  168.3600 C.ar    1  UNL1        0.0080
     16 C         141.0419  142.8559  169.3082 C.ar    1  UNL1        0.0679
     17 CL        140.4768  144.1344  169.8525 Cl      1  UNL1       -0.0814
@<TRIPOS>BOND
     1    10    11    1
     2    11    12   ar
     3    12    13   ar
     4    13    14   ar
     5     1    14    1
     6     1     2    1
     7     2     3    1
     8     3     4    1
     9     5     4    1
    10     5     6    1
    11     6     7    1
    12     7     8    1
    13    14    15   ar
    14    15    16   ar
    15    16    17    1
    16    16    11   ar
    17     5     1    1
    18     8     1    1
    19     7     9    1
@<TRIPOS>MOLECULE
*****
 17 19 0 0 0
SMALL
GASTEIGER

@<TRIPOS>ATOM
      1 C         143.4222  141.2418  165.7666 C.3     1  UNL1        0.0347
      2 C         143.6935  142.7169  165.7868 C.3     1  UNL1        0.0054
      3 C         144.6914  143.0193  164.7085 C.3     1  UNL1        0.0004
      4 C         145.0368  141.7312  164.0219 C.3     1  UNL1        0.0017
      5 C         144.2524  140.6326  164.6759 C.3     1  UNL1        0.0208
      6 C         143.9810  139.1574  164.6557 C.3     1  UNL1        0.0689
      7 N         142.9830  138.8549  165.7340 N.3     1  UNL1       -0.2972
      8 C         142.6377  140.1431  166.4205 C.3     1  UNL1        0.0726
      9 H         143.3865  138.2020  166.4058 H       1  UNL1        0.1233
     10 CL        140.1010  143.6782  170.1293 Cl      1  UNL1       -0.0814
     11 C         140.9313  143.0691  169.0387 C.ar    1  UNL1        0.0682
     12 C         140.3147  142.7713  167.7041 C.ar    1  UNL1        0.0119
     13 C         141.1450  142.1621  166.6135 C.ar    1  UNL1       -0.0033
     14 C         142.5919  141.8509  166.8573 C.ar    1  UNL1       -0.0206
     15 C         143.2085  142.1488  168.1919 C.ar    1  UNL1        0.0080
     16 C         142.3783  142.7578  169.2825 C.ar    1  UNL1        0.0679
     17 CL        142.9949  143.0557  170.6170 Cl      1  UNL1       -0.0814
@<TRIPOS>BOND
     1    10    11    1
     2    11    12   ar
     3    12    13   ar
     4    13    14   ar
     5     1    14    1
     6     1     2    1
     7     2     3    1
     8     3     4    1
     9     5     4    1
    10     5     6    1
    11     6     7    1
    12     7     8    1
    13    14    15   ar
    14    15    16   ar
    15    16    17    1
    16    16    11   ar
    17     5     1    1
    18     8     1    1
    19     7     9    1
