@<TRIPOS>MOLECULE
*****
 35 37 0 0 0
SMALL
GASTEIGER

@<TRIPOS>ATOM
      1 C         139.1778  142.4920  160.5784 C.ar    1  UNL1        0.1389
      2 N         138.3285  141.7120  159.6191 N.ar    1  UNL1       -0.2229
      3 C         138.2554  142.1218  158.1781 C.ar    1  UNL1        0.1740
      4 C         139.0315  143.3115  157.6963 C.ar    1  UNL1        0.2130
      5 O         138.9584  143.7212  156.2551 O.3     1  UNL1       -0.5006
      6 C         139.8808  144.0915  158.6556 C.ar    1  UNL1        0.2973
      7 O         140.6570  145.2812  158.1738 O.2     1  UNL1       -0.2636
      8 N         139.9540  143.6817  160.0966 N.ar    1  UNL1       -0.2783
      9 C         140.8033  144.4617  161.0560 C.3     1  UNL1        0.1349
     10 H         138.4278  143.2340  155.6559 H       1  UNL1        0.2924
     11 C         137.4060  141.3418  157.2187 C.2     1  UNL1        0.2671
     12 O         137.6721  139.8823  156.9971 O.2     1  UNL1       -0.2684
     13 N         136.2907  142.0213  156.4810 N.am    1  UNL1       -0.2956
     14 H         136.1161  142.9792  156.6265 H       1  UNL1        0.1501
     15 C         135.4414  141.2414  155.5217 C.3     1  UNL1        0.1166
     16 C         134.0516  140.8332  155.9112 C.ar    1  UNL1       -0.0024
     17 C         132.8682  141.4757  155.2504 C.ar    1  UNL1       -0.0003
     18 C         131.4783  141.0675  155.6400 C.ar    1  UNL1        0.0294
     19 C         131.2719  140.0168  156.6904 C.ar    1  UNL1        0.1401
     20 F         129.8821  139.6087  157.0800 F       1  UNL1       -0.2042
     21 C         132.4553  139.3743  157.3513 C.ar    1  UNL1        0.0294
     22 C         133.8452  139.7825  156.9617 C.ar    1  UNL1       -0.0003
     23 C         139.2510  142.0823  162.0196 C.3     1  UNL1        0.1078
     24 C         140.4446  141.2262  161.7155 C.3     1  UNL1        0.0274
     25 C         138.0574  142.9383  162.3236 C.3     1  UNL1        0.0274
     26 C         138.5683  140.4678  163.9371 C.2     1  UNL1        0.3015
     27 O         137.7391  139.6727  162.9726 O.2     1  UNL1       -0.2649
     28 N         139.3242  141.6725  163.4606 N.am    1  UNL1       -0.2938
     29 H         139.8684  142.1944  164.0937 H       1  UNL1        0.1502
     30 C         140.0115  140.1760  169.0079 C.3     1  UNL1        0.0967
     31 C         139.3049  139.9239  167.7091 C.ar    1  UNL1        0.2271
     32 N         138.2034  138.9311  167.4828 N.ar    1  UNL1       -0.1112
     33 N         137.7934  139.0140  166.0422 N.ar    1  UNL1       -0.1024
     34 C         138.6415  140.0580  165.3783 C.ar    1  UNL1        0.3038
     35 O         139.5756  140.6204  166.4084 O.2     1  UNL1       -0.4162
@<TRIPOS>BOND
     1    30    31    1
     2    31    32   ar
     3    32    33   ar
     4    33    34   ar
     5    34    26    1
     6    26    27    2
     7    26    28   am
     8    28    23    1
     9    23    24    1
    10    23    25    1
    11    23     1    1
    12     1     2   ar
    13     2     3   ar
    14     3    11    1
    15    11    12    2
    16    11    13   am
    17    13    15    1
    18    15    16    1
    19    16    17   ar
    20    17    18   ar
    21    18    19   ar
    22    19    20    1
    23    19    21   ar
    24    21    22   ar
    25     3     4   ar
    26     4     5    1
    27     4     6   ar
    28     6     7    2
    29     6     8   ar
    30     8     9    1
    31    34    35   ar
    32    35    31   ar
    33     8     1   ar
    34    22    16   ar
    35    28    29    1
    36    13    14    1
    37     5    10    1
@<TRIPOS>MOLECULE
*****
 35 37 0 0 0
SMALL
GASTEIGER

@<TRIPOS>ATOM
      1 C         141.5953  142.8074  160.2220 C.ar    1  UNL1        0.1389
      2 N         142.3191  142.8229  161.5357 N.ar    1  UNL1       -0.2229
      3 C         142.1076  143.9563  162.4951 C.ar    1  UNL1        0.1740
      4 C         141.1722  145.0742  162.1409 C.ar    1  UNL1        0.2130
      5 O         140.9607  146.2077  163.1005 O.3     1  UNL1       -0.5006
      6 C         140.4484  145.0587  160.8273 C.ar    1  UNL1        0.2973
      7 O         139.5130  146.1766  160.4731 O.2     1  UNL1       -0.2636
      8 N         140.6599  143.9253  159.8678 N.ar    1  UNL1       -0.2783
      9 C         139.9360  143.9098  158.5540 C.3     1  UNL1        0.1349
     10 H         141.4129  146.2173  163.9211 H       1  UNL1        0.2924
     11 C         142.8314  143.9719  163.8089 C.2     1  UNL1        0.2671
     12 O         143.6804  145.1504  164.1835 O.2     1  UNL1       -0.2684
     13 N         142.7063  142.8089  164.7479 N.am    1  UNL1       -0.2956
     14 H         142.1490  142.0354  164.5020 H       1  UNL1        0.1501
     15 C         143.4301  142.8244  166.0616 C.3     1  UNL1        0.1166
     16 C         143.1269  141.7826  167.0974 C.ar    1  UNL1       -0.0024
     17 C         143.1369  142.1465  168.5525 C.ar    1  UNL1       -0.0003
     18 C         142.8337  141.1047  169.5882 C.ar    1  UNL1        0.0294
     19 C         142.5204  139.6990  169.1688 C.ar    1  UNL1        0.1401
     20 F         142.2172  138.6572  170.2045 F       1  UNL1       -0.2042
     21 C         142.5104  139.3351  167.7136 C.ar    1  UNL1        0.0294
     22 C         142.8136  140.3769  166.6779 C.ar    1  UNL1       -0.0003
     23 C         141.8067  141.6740  159.2624 C.3     1  UNL1        0.1078
     24 C         140.6854  140.9167  159.9098 C.3     1  UNL1        0.0274
     25 C         142.9281  142.4313  158.6150 C.3     1  UNL1        0.0274
     26 C         142.9702  139.4339  158.6476 C.2     1  UNL1        0.3015
     27 O         143.7108  139.4605  159.9517 O.2     1  UNL1       -0.2649
     28 N         142.0182  140.5406  158.3029 N.am    1  UNL1       -0.2938
     29 H         141.5321  140.5231  157.4470 H       1  UNL1        0.1502
     30 C         142.7301  134.6828  156.3563 C.3     1  UNL1        0.0967
     31 C         143.0713  136.1166  156.6348 C.ar    1  UNL1        0.2271
     32 N         143.9427  136.9961  155.7880 N.ar    1  UNL1       -0.1112
     33 N         144.0109  138.3459  156.4389 N.ar    1  UNL1       -0.1024
     34 C         143.1816  138.3004  157.6880 C.ar    1  UNL1        0.3038
     35 O         142.6009  136.9227  157.8091 O.2     1  UNL1       -0.4162
@<TRIPOS>BOND
     1    30    31    1
     2    31    32   ar
     3    32    33   ar
     4    33    34   ar
     5    34    26    1
     6    26    27    2
     7    26    28   am
     8    28    23    1
     9    23    24    1
    10    23    25    1
    11    23     1    1
    12     1     2   ar
    13     2     3   ar
    14     3    11    1
    15    11    12    2
    16    11    13   am
    17    13    15    1
    18    15    16    1
    19    16    17   ar
    20    17    18   ar
    21    18    19   ar
    22    19    20    1
    23    19    21   ar
    24    21    22   ar
    25     3     4   ar
    26     4     5    1
    27     4     6   ar
    28     6     7    2
    29     6     8   ar
    30     8     9    1
    31    34    35   ar
    32    35    31   ar
    33     8     1   ar
    34    22    16   ar
    35    28    29    1
    36    13    14    1
    37     5    10    1
@<TRIPOS>MOLECULE
*****
 35 37 0 0 0
SMALL
GASTEIGER

@<TRIPOS>ATOM
      1 C         140.2790  140.6437  161.2664 C.ar    1  UNL1        0.1389
      2 N         140.7197  140.2311  162.6395 N.ar    1  UNL1       -0.2229
      3 C         140.1657  140.9289  163.8462 C.ar    1  UNL1        0.1740
      4 C         139.1710  142.0393  163.6797 C.ar    1  UNL1        0.2130
      5 O         138.6170  142.7371  164.8865 O.3     1  UNL1       -0.5006
      6 C         138.7303  142.4518  162.3066 C.ar    1  UNL1        0.2973
      7 O         137.7356  143.5621  162.1401 O.2     1  UNL1       -0.2636
      8 N         139.2843  141.7540  161.0999 N.ar    1  UNL1       -0.2783
      9 C         138.8436  142.1665  159.7267 C.3     1  UNL1        0.1349
     10 H         138.8923  142.4794  165.7443 H       1  UNL1        0.2924
     11 C         140.6064  140.5164  165.2194 C.2     1  UNL1        0.2671
     12 O         142.0039  140.0183  165.4406 O.2     1  UNL1       -0.2684
     13 N         139.6496  140.6021  166.3715 N.am    1  UNL1       -0.2956
     14 H         138.7324  140.9290  166.2263 H       1  UNL1        0.1501
     15 C         140.0902  140.1896  167.7446 C.3     1  UNL1        0.1166
     16 C         140.9416  141.1106  168.5674 C.ar    1  UNL1       -0.0024
     17 C         140.3790  142.4100  169.0623 C.ar    1  UNL1       -0.0003
     18 C         141.2304  143.3310  169.8850 C.ar    1  UNL1        0.0294
     19 C         142.6444  142.9526  170.2128 C.ar    1  UNL1        0.1401
     20 F         143.4958  143.8737  171.0355 F       1  UNL1       -0.2042
     21 C         143.2070  141.6532  169.7179 C.ar    1  UNL1        0.0294
     22 C         142.3557  140.7322  168.8952 C.ar    1  UNL1       -0.0003
     23 C         140.8330  139.9458  160.0596 C.3     1  UNL1        0.1078
     24 C         139.7176  138.9452  160.1263 C.3     1  UNL1        0.0274
     25 C         141.9484  140.9465  159.9930 C.3     1  UNL1        0.0274
     26 C         142.3651  138.1231  159.0202 C.2     1  UNL1        0.3015
     27 O         142.7893  137.6961  160.3941 O.2     1  UNL1       -0.2649
     28 N         141.3870  139.2480  158.8530 N.am    1  UNL1       -0.2938
     29 H         141.1086  139.5283  157.9512 H       1  UNL1        0.1502
     30 C         143.6413  134.3663  155.5362 C.3     1  UNL1        0.0967
     31 C         143.5056  135.6985  156.2120 C.ar    1  UNL1        0.2271
     32 N         144.0373  137.0047  155.7007 N.ar    1  UNL1       -0.1112
     33 N         143.6747  138.0720  156.6905 N.ar    1  UNL1       -0.1024
     34 C         142.9190  137.4253  157.8134 C.ar    1  UNL1        0.3038
     35 O         142.8145  135.9585  157.5176 O.2     1  UNL1       -0.4162
@<TRIPOS>BOND
     1    30    31    1
     2    31    32   ar
     3    32    33   ar
     4    33    34   ar
     5    34    26    1
     6    26    27    2
     7    26    28   am
     8    28    23    1
     9    23    24    1
    10    23    25    1
    11    23     1    1
    12     1     2   ar
    13     2     3   ar
    14     3    11    1
    15    11    12    2
    16    11    13   am
    17    13    15    1
    18    15    16    1
    19    16    17   ar
    20    17    18   ar
    21    18    19   ar
    22    19    20    1
    23    19    21   ar
    24    21    22   ar
    25     3     4   ar
    26     4     5    1
    27     4     6   ar
    28     6     7    2
    29     6     8   ar
    30     8     9    1
    31    34    35   ar
    32    35    31   ar
    33     8     1   ar
    34    22    16   ar
    35    28    29    1
    36    13    14    1
    37     5    10    1
@<TRIPOS>MOLECULE
*****
 35 37 0 0 0
SMALL
GASTEIGER

@<TRIPOS>ATOM
      1 C         141.0510  142.7721  161.1092 C.ar    1  UNL1        0.1389
      2 N         140.6809  142.1176  162.4071 N.ar    1  UNL1       -0.2229
      3 C         140.1108  142.9389  163.5253 C.ar    1  UNL1        0.1740
      4 C         139.9109  144.4146  163.3456 C.ar    1  UNL1        0.2130
      5 O         139.3408  145.2359  164.4639 O.3     1  UNL1       -0.5006
      6 C         140.2810  145.0691  162.0477 C.ar    1  UNL1        0.2973
      7 O         140.0810  146.5448  161.8679 O.2     1  UNL1       -0.2636
      8 N         140.8511  144.2478  160.9295 N.ar    1  UNL1       -0.2783
      9 C         141.2212  144.9022  159.6314 C.3     1  UNL1        0.1349
     10 H         139.1096  144.8271  165.2747 H       1  UNL1        0.2924
     11 C         139.7407  142.2845  164.8234 C.2     1  UNL1        0.2671
     12 O         139.6880  143.0956  166.0840 O.2     1  UNL1       -0.2684
     13 N         139.4232  140.8190  164.8607 N.am    1  UNL1       -0.2956
     14 H         139.4578  140.2866  164.0332 H       1  UNL1        0.1501
     15 C         139.0531  140.1645  166.1586 C.3     1  UNL1        0.1166
     16 C         140.0838  139.9986  167.2356 C.ar    1  UNL1       -0.0024
     17 C         139.6840  140.0972  168.6780 C.ar    1  UNL1       -0.0003
     18 C         140.7148  139.9313  169.7550 C.ar    1  UNL1        0.0294
     19 C         142.1453  139.6668  169.3897 C.ar    1  UNL1        0.1401
     20 F         143.1761  139.5009  170.4668 F       1  UNL1       -0.2042
     21 C         142.5452  139.5683  167.9473 C.ar    1  UNL1        0.0294
     22 C         141.5145  139.7342  166.8703 C.ar    1  UNL1       -0.0003
     23 C         141.6211  141.9508  159.9909 C.3     1  UNL1        0.1078
     24 C         140.2395  141.7250  159.4524 C.3     1  UNL1        0.0274
     25 C         143.0028  142.1766  160.5293 C.3     1  UNL1        0.0274
     26 C         142.3418  139.6458  159.0331 C.2     1  UNL1        0.3015
     27 O         141.9225  138.9832  160.3118 O.2     1  UNL1       -0.2649
     28 N         142.1912  141.1295  158.8726 N.am    1  UNL1       -0.2938
     29 H         142.4664  141.5643  158.0333 H       1  UNL1        0.1502
     30 C         143.3458  135.6237  155.7626 C.3     1  UNL1        0.0967
     31 C         143.3733  136.9758  156.4115 C.ar    1  UNL1        0.2271
     32 N         144.2049  138.1458  155.9761 N.ar    1  UNL1       -0.1112
     33 N         143.9197  139.2885  156.9052 N.ar    1  UNL1       -0.1024
     34 C         142.9119  138.8245  157.9147 C.ar    1  UNL1        0.3038
     35 O         142.5742  137.3952  157.6096 O.2     1  UNL1       -0.4162
@<TRIPOS>BOND
     1    30    31    1
     2    31    32   ar
     3    32    33   ar
     4    33    34   ar
     5    34    26    1
     6    26    27    2
     7    26    28   am
     8    28    23    1
     9    23    24    1
    10    23    25    1
    11    23     1    1
    12     1     2   ar
    13     2     3   ar
    14     3    11    1
    15    11    12    2
    16    11    13   am
    17    13    15    1
    18    15    16    1
    19    16    17   ar
    20    17    18   ar
    21    18    19   ar
    22    19    20    1
    23    19    21   ar
    24    21    22   ar
    25     3     4   ar
    26     4     5    1
    27     4     6   ar
    28     6     7    2
    29     6     8   ar
    30     8     9    1
    31    34    35   ar
    32    35    31   ar
    33     8     1   ar
    34    22    16   ar
    35    28    29    1
    36    13    14    1
    37     5    10    1
@<TRIPOS>MOLECULE
*****
 35 37 0 0 0
SMALL
GASTEIGER

@<TRIPOS>ATOM
      1 C         139.9498  139.3892  161.5372 C.ar    1  UNL1        0.1389
      2 N         140.9737  138.7252  160.6651 N.ar    1  UNL1       -0.2229
      3 C         140.7279  138.5870  159.1918 C.ar    1  UNL1        0.1740
      4 C         139.4582  139.1129  158.5907 C.ar    1  UNL1        0.2130
      5 O         139.2125  138.9747  157.1174 O.3     1  UNL1       -0.5006
      6 C         138.4343  139.7770  159.4628 C.ar    1  UNL1        0.2973
      7 O         137.1646  140.3028  158.8617 O.2     1  UNL1       -0.2636
      8 N         138.6801  139.9151  160.9361 N.ar    1  UNL1       -0.2783
      9 C         137.6562  140.5792  161.8083 C.3     1  UNL1        0.1349
     10 H         139.8521  138.5599  156.5726 H       1  UNL1        0.2924
     11 C         141.7518  137.9230  158.3197 C.2     1  UNL1        0.2671
     12 O         143.2126  138.0940  158.6144 O.2     1  UNL1       -0.2684
     13 N         141.3149  137.0879  157.1527 N.am    1  UNL1       -0.2956
     14 H         140.3562  136.9757  156.9592 H       1  UNL1        0.1501
     15 C         142.3388  136.4239  156.2805 C.3     1  UNL1        0.1166
     16 C         142.4833  134.9309  156.2970 C.ar    1  UNL1       -0.0024
     17 C         143.5085  134.2864  157.1821 C.ar    1  UNL1       -0.0003
     18 C         143.6530  132.7935  157.1986 C.ar    1  UNL1        0.0294
     19 C         142.7724  131.9451  156.3299 C.ar    1  UNL1        0.1401
     20 F         142.9169  130.4522  156.3464 F       1  UNL1       -0.2042
     21 C         141.7471  132.5896  155.4447 C.ar    1  UNL1        0.0294
     22 C         141.6026  134.0826  155.4282 C.ar    1  UNL1       -0.0003
     23 C         140.1955  139.5274  163.0105 C.3     1  UNL1        0.1078
     24 C         139.5195  138.2095  163.2468 C.3     1  UNL1        0.0274
     25 C         140.8716  140.8454  162.7742 C.3     1  UNL1        0.0274
     26 C         141.6963  139.1113  165.0900 C.2     1  UNL1        0.3015
     27 O         142.7056  138.4188  164.2231 O.2     1  UNL1       -0.2649
     28 N         140.4412  139.6656  164.4837 N.am    1  UNL1       -0.2938
     29 H         139.7788  140.1200  165.0528 H       1  UNL1        0.1502
     30 C         141.0301  140.2146  170.2105 C.3     1  UNL1        0.0967
     31 C         141.6358  139.7566  168.9170 C.ar    1  UNL1        0.2271
     32 N         143.0044  139.1674  168.7440 N.ar    1  UNL1       -0.1112
     33 N         143.1936  138.8540  167.2893 N.ar    1  UNL1       -0.1024
     34 C         141.9420  139.2494  166.5634 C.ar    1  UNL1        0.3038
     35 O         140.9792  139.8072  167.5693 O.2     1  UNL1       -0.4162
@<TRIPOS>BOND
     1    30    31    1
     2    31    32   ar
     3    32    33   ar
     4    33    34   ar
     5    34    26    1
     6    26    27    2
     7    26    28   am
     8    28    23    1
     9    23    24    1
    10    23    25    1
    11    23     1    1
    12     1     2   ar
    13     2     3   ar
    14     3    11    1
    15    11    12    2
    16    11    13   am
    17    13    15    1
    18    15    16    1
    19    16    17   ar
    20    17    18   ar
    21    18    19   ar
    22    19    20    1
    23    19    21   ar
    24    21    22   ar
    25     3     4   ar
    26     4     5    1
    27     4     6   ar
    28     6     7    2
    29     6     8   ar
    30     8     9    1
    31    34    35   ar
    32    35    31   ar
    33     8     1   ar
    34    22    16   ar
    35    28    29    1
    36    13    14    1
    37     5    10    1
@<TRIPOS>MOLECULE
*****
 35 37 0 0 0
SMALL
GASTEIGER

@<TRIPOS>ATOM
      1 C         139.0932  139.6964  160.2016 C.ar    1  UNL1        0.1389
      2 N         139.4945  138.6297  159.2264 N.ar    1  UNL1       -0.2229
      3 C         139.4210  138.8954  157.7520 C.ar    1  UNL1        0.1740
      4 C         138.9460  140.2278  157.2528 C.ar    1  UNL1        0.2130
      5 O         138.8725  140.4935  155.7783 O.3     1  UNL1       -0.5006
      6 C         138.5447  141.2945  158.2280 C.ar    1  UNL1        0.2973
      7 O         138.0698  142.6269  157.7287 O.2     1  UNL1       -0.2636
      8 N         138.6183  141.0288  159.7024 N.ar    1  UNL1       -0.2783
      9 C         138.2169  142.0955  160.6777 C.3     1  UNL1        0.1349
     10 H         139.1232  139.8272  155.1691 H       1  UNL1        0.2924
     11 C         139.8223  137.8287  156.7767 C.2     1  UNL1        0.2671
     12 O         138.7837  136.9187  156.1911 O.2     1  UNL1       -0.2684
     13 N         141.2624  137.6721  156.3871 N.am    1  UNL1       -0.2956
     14 H         141.9441  138.2694  156.7715 H       1  UNL1        0.1501
     15 C         141.6638  136.6055  155.4119 C.3     1  UNL1        0.1166
     16 C         142.0946  135.2577  155.9097 C.ar    1  UNL1       -0.0024
     17 C         141.5237  134.0138  155.2960 C.ar    1  UNL1       -0.0003
     18 C         141.9545  132.6660  155.7938 C.ar    1  UNL1        0.0294
     19 C         142.9562  132.5621  156.9054 C.ar    1  UNL1        0.1401
     20 F         143.3870  131.2143  157.4033 F       1  UNL1       -0.2042
     21 C         143.5271  133.8061  157.5193 C.ar    1  UNL1        0.0294
     22 C         143.0963  135.1538  157.0214 C.ar    1  UNL1       -0.0003
     23 C         139.1667  139.4308  161.6761 C.3     1  UNL1        0.1078
     24 C         137.8608  138.6960  161.6088 C.3     1  UNL1        0.0274
     25 C         140.4726  140.1656  161.7434 C.3     1  UNL1        0.0274
     26 C         138.4546  140.0139  164.1056 C.2     1  UNL1        0.3015
     27 O         137.5954  141.1283  163.5863 O.2     1  UNL1       -0.2649
     28 N         139.2402  139.1651  163.1505 N.am    1  UNL1       -0.2938
     29 H         139.8041  138.4336  163.4914 H       1  UNL1        0.1502
     30 C         139.9363  140.1820  169.1709 C.3     1  UNL1        0.0967
     31 C         139.2092  139.8254  167.9084 C.ar    1  UNL1        0.2271
     32 N         138.0732  138.8530  167.7898 N.ar    1  UNL1       -0.1112
     33 N         137.6522  138.8052  166.3508 N.ar    1  UNL1       -0.1024
     34 C         138.5281  139.7481  165.5801 C.ar    1  UNL1        0.3038
     35 O         139.4903  140.3786  166.5427 O.2     1  UNL1       -0.4162
@<TRIPOS>BOND
     1    30    31    1
     2    31    32   ar
     3    32    33   ar
     4    33    34   ar
     5    34    26    1
     6    26    27    2
     7    26    28   am
     8    28    23    1
     9    23    24    1
    10    23    25    1
    11    23     1    1
    12     1     2   ar
    13     2     3   ar
    14     3    11    1
    15    11    12    2
    16    11    13   am
    17    13    15    1
    18    15    16    1
    19    16    17   ar
    20    17    18   ar
    21    18    19   ar
    22    19    20    1
    23    19    21   ar
    24    21    22   ar
    25     3     4   ar
    26     4     5    1
    27     4     6   ar
    28     6     7    2
    29     6     8   ar
    30     8     9    1
    31    34    35   ar
    32    35    31   ar
    33     8     1   ar
    34    22    16   ar
    35    28    29    1
    36    13    14    1
    37     5    10    1
@<TRIPOS>MOLECULE
*****
 35 37 0 0 0
SMALL
GASTEIGER

@<TRIPOS>ATOM
      1 C         139.6502  139.4449  160.1332 C.ar    1  UNL1        0.1389
      2 N         138.5139  140.1601  159.4646 N.ar    1  UNL1       -0.2229
      3 C         138.5055  140.3259  157.9738 C.ar    1  UNL1        0.1740
      4 C         139.6335  139.7764  157.1517 C.ar    1  UNL1        0.2130
      5 O         139.6251  139.9422  155.6609 O.3     1  UNL1       -0.5006
      6 C         140.7698  139.0612  157.8204 C.ar    1  UNL1        0.2973
      7 O         141.8978  138.5118  156.9983 O.2     1  UNL1       -0.2636
      8 N         140.7782  138.8954  159.3111 N.ar    1  UNL1       -0.2783
      9 C         141.9145  138.1802  159.9799 C.3     1  UNL1        0.1349
     10 H         138.9152  140.3890  155.2432 H       1  UNL1        0.2924
     11 C         137.3691  141.0411  157.3051 C.2     1  UNL1        0.2671
     12 O         137.1845  142.5151  157.5131 O.2     1  UNL1       -0.2684
     13 N         136.4175  140.2824  156.4283 N.am    1  UNL1       -0.2956
     14 H         136.5387  139.3149  156.2918 H       1  UNL1        0.1501
     15 C         135.2812  140.9975  155.7596 C.3     1  UNL1        0.1166
     16 C         133.8651  140.6309  156.0915 C.ar    1  UNL1       -0.0024
     17 C         132.7289  141.3797  155.4605 C.ar    1  UNL1       -0.0003
     18 C         131.3127  141.0131  155.7924 C.ar    1  UNL1        0.0294
     19 C         131.0328  139.8976  156.7553 C.ar    1  UNL1        0.1401
     20 F         129.6167  139.5309  157.0872 F       1  UNL1       -0.2042
     21 C         132.1691  139.1486  157.3864 C.ar    1  UNL1        0.0294
     22 C         133.5852  139.5153  157.0545 C.ar    1  UNL1       -0.0003
     23 C         139.6586  139.2790  161.6241 C.3     1  UNL1        0.1078
     24 C         138.8699  138.0105  161.4874 C.3     1  UNL1        0.0274
     25 C         140.4473  140.5476  161.7608 C.3     1  UNL1        0.0274
     26 C         138.6275  139.7983  163.9515 C.2     1  UNL1        0.3015
     27 O         137.5796  140.6492  163.2975 O.2     1  UNL1       -0.2649
     28 N         139.6670  139.1132  163.1148 N.am    1  UNL1       -0.2938
     29 H         140.3548  138.5547  163.5441 H       1  UNL1        0.1502
     30 C         139.8685  140.3284  169.0564 C.3     1  UNL1        0.0967
     31 C         139.2064  139.8760  167.7888 C.ar    1  UNL1        0.2271
     32 N         138.0914  138.8781  167.6841 N.ar    1  UNL1       -0.1112
     33 N         137.7388  138.7275  166.2338 N.ar    1  UNL1       -0.1024
     34 C         138.6360  139.6324  165.4424 C.ar    1  UNL1        0.3038
     35 O         139.5429  140.3422  166.4034 O.2     1  UNL1       -0.4162
@<TRIPOS>BOND
     1    30    31    1
     2    31    32   ar
     3    32    33   ar
     4    33    34   ar
     5    34    26    1
     6    26    27    2
     7    26    28   am
     8    28    23    1
     9    23    24    1
    10    23    25    1
    11    23     1    1
    12     1     2   ar
    13     2     3   ar
    14     3    11    1
    15    11    12    2
    16    11    13   am
    17    13    15    1
    18    15    16    1
    19    16    17   ar
    20    17    18   ar
    21    18    19   ar
    22    19    20    1
    23    19    21   ar
    24    21    22   ar
    25     3     4   ar
    26     4     5    1
    27     4     6   ar
    28     6     7    2
    29     6     8   ar
    30     8     9    1
    31    34    35   ar
    32    35    31   ar
    33     8     1   ar
    34    22    16   ar
    35    28    29    1
    36    13    14    1
    37     5    10    1
@<TRIPOS>MOLECULE
*****
 35 37 0 0 0
SMALL
GASTEIGER

@<TRIPOS>ATOM
      1 C         141.0604  143.0554  160.5227 C.ar    1  UNL1        0.1389
      2 N         140.9867  142.4813  161.9065 N.ar    1  UNL1       -0.2229
      3 C         140.4238  143.3009  163.0295 C.ar    1  UNL1        0.1740
      4 C         139.9347  144.6948  162.7688 C.ar    1  UNL1        0.2130
      5 O         139.3718  145.5145  163.8919 O.3     1  UNL1       -0.5006
      6 C         140.0084  145.2689  161.3850 C.ar    1  UNL1        0.2973
      7 O         139.5192  146.6627  161.1243 O.2     1  UNL1       -0.2636
      8 N         140.5712  144.4492  160.2620 N.ar    1  UNL1       -0.2783
      9 C         140.6450  145.0234  158.8781 C.3     1  UNL1        0.1349
     10 H         139.3257  145.1558  164.7563 H       1  UNL1        0.2924
     11 C         140.3500  142.7268  164.4134 C.2     1  UNL1        0.2671
     12 O         139.3432  143.2549  165.3918 O.2     1  UNL1       -0.2684
     13 N         141.2832  141.6246  164.8188 N.am    1  UNL1       -0.2956
     14 H         141.9440  141.2780  164.1766 H       1  UNL1        0.1501
     15 C         141.2095  141.0505  166.2025 C.3     1  UNL1        0.1166
     16 C         140.0335  140.2106  166.6044 C.ar    1  UNL1       -0.0024
     17 C         139.3629  139.3269  165.5947 C.ar    1  UNL1       -0.0003
     18 C         138.1869  138.4870  165.9966 C.ar    1  UNL1        0.0294
     19 C         137.6814  138.5308  167.4082 C.ar    1  UNL1        0.1401
     20 F         136.5053  137.6909  167.8100 F       1  UNL1       -0.2042
     21 C         138.3519  139.4144  168.4179 C.ar    1  UNL1        0.0294
     22 C         139.5280  140.2543  168.0161 C.ar    1  UNL1       -0.0003
     23 C         141.6233  142.2357  159.3996 C.3     1  UNL1        0.1078
     24 C         142.9816  142.8184  159.6552 C.3     1  UNL1        0.0274
     25 C         140.2649  141.6530  159.1440 C.3     1  UNL1        0.0274
     26 C         142.7374  140.0480  158.5495 C.2     1  UNL1        0.3015
     27 O         142.7257  139.4996  159.9456 O.2     1  UNL1       -0.2649
     28 N         142.1862  141.4161  158.2765 N.am    1  UNL1       -0.2938
     29 H         142.1939  141.7761  157.3602 H       1  UNL1        0.1502
     30 C         143.4218  136.2157  154.9822 C.3     1  UNL1        0.0967
     31 C         143.6149  137.4669  155.7867 C.ar    1  UNL1        0.2271
     32 N         144.7183  138.4675  155.6095 N.ar    1  UNL1       -0.1112
     33 N         144.5238  139.5562  156.6229 N.ar    1  UNL1       -0.1024
     34 C         143.3003  139.2284  157.4264 C.ar    1  UNL1        0.3038
     35 O         142.7386  137.9371  156.9096 O.2     1  UNL1       -0.4162
@<TRIPOS>BOND
     1    30    31    1
     2    31    32   ar
     3    32    33   ar
     4    33    34   ar
     5    34    26    1
     6    26    27    2
     7    26    28   am
     8    28    23    1
     9    23    24    1
    10    23    25    1
    11    23     1    1
    12     1     2   ar
    13     2     3   ar
    14     3    11    1
    15    11    12    2
    16    11    13   am
    17    13    15    1
    18    15    16    1
    19    16    17   ar
    20    17    18   ar
    21    18    19   ar
    22    19    20    1
    23    19    21   ar
    24    21    22   ar
    25     3     4   ar
    26     4     5    1
    27     4     6   ar
    28     6     7    2
    29     6     8   ar
    30     8     9    1
    31    34    35   ar
    32    35    31   ar
    33     8     1   ar
    34    22    16   ar
    35    28    29    1
    36    13    14    1
    37     5    10    1
@<TRIPOS>MOLECULE
*****
 35 37 0 0 0
SMALL
GASTEIGER

@<TRIPOS>ATOM
      1 C         143.3554  140.4472  161.6590 C.ar    1  UNL1        0.1389
      2 N         142.7028  139.3601  160.8575 N.ar    1  UNL1       -0.2229
      3 C         142.8085  139.3650  159.3613 C.ar    1  UNL1        0.1740
      4 C         143.5669  140.4568  158.6665 C.ar    1  UNL1        0.2130
      5 O         143.6726  140.4616  157.1702 O.3     1  UNL1       -0.5006
      6 C         144.2195  141.5438  159.4680 C.ar    1  UNL1        0.2973
      7 O         144.9779  142.6357  158.7732 O.2     1  UNL1       -0.2636
      8 N         144.1138  141.5390  160.9642 N.ar    1  UNL1       -0.2783
      9 C         144.7665  142.6261  161.7657 C.3     1  UNL1        0.1349
     10 H         143.2649  139.7826  156.6696 H       1  UNL1        0.2924
     11 C         142.1558  138.2779  158.5598 C.2     1  UNL1        0.2671
     12 O         140.6665  138.1051  158.6033 O.2     1  UNL1       -0.2684
     13 N         142.9926  137.3637  157.7147 N.am    1  UNL1       -0.2956
     14 H         143.9701  137.4772  157.6862 H       1  UNL1        0.1501
     15 C         142.3400  136.2767  156.9132 C.3     1  UNL1        0.1166
     16 C         143.0345  134.9599  156.7300 C.ar    1  UNL1       -0.0024
     17 C         143.7204  134.3056  157.8925 C.ar    1  UNL1       -0.0003
     18 C         144.4150  132.9888  157.7093 C.ar    1  UNL1        0.0294
     19 C         144.4236  132.3262  156.3636 C.ar    1  UNL1        0.1401
     20 F         145.1181  131.0094  156.1805 F       1  UNL1       -0.2042
     21 C         143.7376  132.9805  155.2011 C.ar    1  UNL1        0.0294
     22 C         143.0431  134.2973  155.3843 C.ar    1  UNL1       -0.0003
     23 C         143.2498  140.4424  163.1553 C.3     1  UNL1        0.1078
     24 C         142.0033  141.2724  163.0699 C.3     1  UNL1        0.0274
     25 C         144.4962  139.6124  163.2408 C.3     1  UNL1        0.0274
     26 C         142.3382  139.3782  165.3431 C.2     1  UNL1        0.3015
     27 O         141.6381  138.3236  164.5385 O.2     1  UNL1       -0.2649
     28 N         143.1440  140.4376  164.6515 N.am    1  UNL1       -0.2938
     29 H         143.6035  141.1299  165.1797 H       1  UNL1        0.1502
     30 C         140.5168  140.0682  170.2509 C.3     1  UNL1        0.0967
     31 C         141.3953  139.6906  169.0953 C.ar    1  UNL1        0.2271
     32 N         142.7445  139.0418  169.1886 N.ar    1  UNL1       -0.1112
     33 N         143.2620  138.8458  167.7943 N.ar    1  UNL1       -0.1024
     34 C         142.2325  139.3735  166.8394 C.ar    1  UNL1        0.3038
     35 O         141.0789  139.8956  167.6435 O.2     1  UNL1       -0.4162
@<TRIPOS>BOND
     1    30    31    1
     2    31    32   ar
     3    32    33   ar
     4    33    34   ar
     5    34    26    1
     6    26    27    2
     7    26    28   am
     8    28    23    1
     9    23    24    1
    10    23    25    1
    11    23     1    1
    12     1     2   ar
    13     2     3   ar
    14     3    11    1
    15    11    12    2
    16    11    13   am
    17    13    15    1
    18    15    16    1
    19    16    17   ar
    20    17    18   ar
    21    18    19   ar
    22    19    20    1
    23    19    21   ar
    24    21    22   ar
    25     3     4   ar
    26     4     5    1
    27     4     6   ar
    28     6     7    2
    29     6     8   ar
    30     8     9    1
    31    34    35   ar
    32    35    31   ar
    33     8     1   ar
    34    22    16   ar
    35    28    29    1
    36    13    14    1
    37     5    10    1
