@<TRIPOS>MOLECULE
*****
 30 32 0 0 0
SMALL
GASTEIGER

@<TRIPOS>ATOM
      1 C         137.9368  141.5917  157.8896 C.ar    1  UNL1        0.1393
      2 C         136.8107  140.9165  157.1642 C.ar    1  UNL1        0.0581
      3 C         136.3727  141.4228  155.8219 C.ar    1  UNL1        0.1354
      4 N         137.0609  142.6043  155.2049 N.ar    1  UNL1       -0.2090
      5 C         138.1869  143.2794  155.9302 C.ar    1  UNL1        0.2002
      6 N         138.6249  142.7731  157.2726 N.ar    1  UNL1       -0.2192
      7 N         137.4787  140.1761  160.0194 N.am    1  UNL1       -0.2791
      8 C         138.3748  141.0854  159.2319 C.2     1  UNL1        0.2674
      9 O         139.7089  141.4884  159.7867 O.2     1  UNL1       -0.2682
     10 H         136.6031  139.9116  159.6553 H       1  UNL1        0.1552
     11 C         138.7926  138.6572  164.0464 C.ar    1  UNL1        0.1385
     12 C         138.2337  140.0428  163.9133 C.ar    1  UNL1        0.0382
     13 C         137.7957  140.5491  162.5709 C.ar    1  UNL1        0.0178
     14 C         137.9167  139.6698  161.3617 C.ar    1  UNL1        0.0508
     15 C         138.4757  138.2843  161.4948 C.ar    1  UNL1        0.0178
     16 C         138.9136  137.7780  162.8372 C.ar    1  UNL1        0.0382
     17 O         139.2306  138.1509  165.3887 O.3     1  UNL1       -0.4792
     18 C         137.3629  138.2405  167.1925 C.3     1  UNL1        0.0472
     19 C         138.6602  138.7513  166.6394 C.3     1  UNL1        0.1661
     20 C         139.3872  139.8626  167.3370 C.3     1  UNL1        0.0472
     21 N         135.2467  140.7476  155.0966 N.pl3   1  UNL1       -0.2873
     22 C         135.5347  139.6289  154.1397 C.3     1  UNL1        0.1139
     23 C         133.8326  141.1912  155.3280 C.3     1  UNL1        0.1189
     24 C         132.9261  140.3798  156.2056 C.ar    1  UNL1       -0.0022
     25 C         133.5046  139.3670  157.1486 C.ar    1  UNL1       -0.0003
     26 C         132.5982  138.5556  158.0261 C.ar    1  UNL1        0.0294
     27 C         131.1132  138.7571  157.9605 C.ar    1  UNL1        0.1401
     28 F         130.2068  137.9457  158.8381 F       1  UNL1       -0.2042
     29 C         130.5347  139.7700  157.0174 C.ar    1  UNL1        0.0294
     30 C         131.4412  140.5813  156.1400 C.ar    1  UNL1       -0.0003
@<TRIPOS>BOND
     1    18    19    1
     2    19    20    1
     3    19    17    1
     4    17    11    1
     5    11    12   ar
     6    12    13   ar
     7    13    14   ar
     8    14     7    1
     9     7     8   am
    10     8     9    2
    11     8     1    1
    12     1     2   ar
    13     2     3   ar
    14     3    21    1
    15    21    22    1
    16    21    23    1
    17    23    24    1
    18    24    25   ar
    19    25    26   ar
    20    26    27   ar
    21    27    28    1
    22    27    29   ar
    23    29    30   ar
    24     3     4   ar
    25     4     5   ar
    26     5     6   ar
    27    14    15   ar
    28    15    16   ar
    29    16    11   ar
    30     6     1   ar
    31    30    24   ar
    32     7    10    1
@<TRIPOS>MOLECULE
*****
 30 32 0 0 0
SMALL
GASTEIGER

@<TRIPOS>ATOM
      1 C         139.3381  138.6872  165.3716 C.ar    1  UNL1        0.1393
      2 C         140.1023  139.5725  166.3110 C.ar    1  UNL1        0.0581
      3 C         139.5783  139.8293  167.6928 C.ar    1  UNL1        0.1354
      4 N         138.2901  139.2009  168.1353 N.ar    1  UNL1       -0.2090
      5 C         137.5260  138.3156  167.1959 C.ar    1  UNL1        0.2002
      6 N         138.0500  138.0588  165.8141 N.ar    1  UNL1       -0.2192
      7 N         141.0662  139.1746  163.4939 N.am    1  UNL1       -0.2791
      8 C         139.8621  138.4303  163.9898 C.2     1  UNL1        0.2674
      9 O         139.1818  137.4291  163.1038 O.2     1  UNL1       -0.2682
     10 H         141.5127  139.8318  164.0754 H       1  UNL1        0.1552
     11 C         142.6382  138.4041  159.3484 C.ar    1  UNL1        0.1385
     12 C         141.6338  139.4939  159.5791 C.ar    1  UNL1        0.0382
     13 C         141.1098  139.7508  160.9609 C.ar    1  UNL1        0.0178
     14 C         141.5902  138.9178  162.1121 C.ar    1  UNL1        0.0508
     15 C         142.5947  137.8280  161.8814 C.ar    1  UNL1        0.0178
     16 C         143.1187  137.5711  160.4996 C.ar    1  UNL1        0.0382
     17 O         143.1622  138.1473  157.9666 O.3     1  UNL1       -0.4792
     18 C         141.0981  137.2278  156.6846 C.3     1  UNL1        0.0472
     19 C         142.5302  137.0912  157.1091 C.3     1  UNL1        0.1661
     20 C         143.3304  135.8986  156.6760 C.3     1  UNL1        0.0472
     21 N         140.3424  140.7146  168.6321 N.pl3   1  UNL1       -0.2873
     22 C         140.8855  140.1563  169.9141 C.3     1  UNL1        0.1139
     23 C         140.5634  142.1581  168.2896 C.3     1  UNL1        0.1189
     24 C         141.3858  142.5270  167.0905 C.ar    1  UNL1       -0.0022
     25 C         142.8685  142.3002  167.0994 C.ar    1  UNL1       -0.0003
     26 C         143.6908  142.6690  165.9004 C.ar    1  UNL1        0.0294
     27 C         143.0305  143.2647  164.6925 C.ar    1  UNL1        0.1401
     28 F         143.8529  143.6335  163.4934 F       1  UNL1       -0.2042
     29 C         141.5478  143.4914  164.6835 C.ar    1  UNL1        0.0294
     30 C         140.7254  143.1226  165.8826 C.ar    1  UNL1       -0.0003
@<TRIPOS>BOND
     1    18    19    1
     2    19    20    1
     3    19    17    1
     4    17    11    1
     5    11    12   ar
     6    12    13   ar
     7    13    14   ar
     8    14     7    1
     9     7     8   am
    10     8     9    2
    11     8     1    1
    12     1     2   ar
    13     2     3   ar
    14     3    21    1
    15    21    22    1
    16    21    23    1
    17    23    24    1
    18    24    25   ar
    19    25    26   ar
    20    26    27   ar
    21    27    28    1
    22    27    29   ar
    23    29    30   ar
    24     3     4   ar
    25     4     5   ar
    26     5     6   ar
    27    14    15   ar
    28    15    16   ar
    29    16    11   ar
    30     6     1   ar
    31    30    24   ar
    32     7    10    1
@<TRIPOS>MOLECULE
*****
 30 32 0 0 0
SMALL
GASTEIGER

@<TRIPOS>ATOM
      1 C         138.9905  139.5247  159.1708 C.ar    1  UNL1        0.1393
      2 C         138.0638  140.4662  158.4602 C.ar    1  UNL1        0.0581
      3 C         137.9151  140.3897  156.9696 C.ar    1  UNL1        0.1354
      4 N         138.6930  139.3717  156.1895 N.ar    1  UNL1       -0.2090
      5 C         139.6196  138.4302  156.9000 C.ar    1  UNL1        0.2002
      6 N         139.7684  138.5067  158.3907 N.ar    1  UNL1       -0.2192
      7 N         138.2073  138.8304  161.5487 N.am    1  UNL1       -0.2791
      8 C         139.1393  139.6012  160.6614 C.2     1  UNL1        0.2674
      9 O         140.2200  140.4485  161.2648 O.2     1  UNL1       -0.2682
     10 H         137.4980  138.2742  161.1527 H       1  UNL1        0.1552
     11 C         138.6536  139.0598  166.0206 C.ar    1  UNL1        0.1385
     12 C         139.0386  137.8067  165.2918 C.ar    1  UNL1        0.0382
     13 C         138.8899  137.7302  163.8012 C.ar    1  UNL1        0.0178
     14 C         138.3561  138.9069  163.0393 C.ar    1  UNL1        0.0508
     15 C         137.9710  140.1600  163.7682 C.ar    1  UNL1        0.0178
     16 C         138.1198  140.2365  165.2588 C.ar    1  UNL1        0.0382
     17 O         138.8023  139.1363  167.5113 O.3     1  UNL1       -0.4792
     18 C         141.1996  140.1372  167.4772 C.3     1  UNL1        0.0472
     19 C         139.8469  140.0268  168.1160 C.3     1  UNL1        0.1661
     20 C         139.5389  140.8070  169.3597 C.3     1  UNL1        0.0472
     21 N         136.9884  141.3312  156.2591 N.pl3   1  UNL1       -0.2873
     22 C         137.1093  142.8103  156.4779 C.3     1  UNL1        0.1139
     23 C         135.9409  140.7937  155.3297 C.3     1  UNL1        0.1189
     24 C         134.5296  140.6231  155.8085 C.ar    1  UNL1       -0.0022
     25 C         133.4094  141.3352  155.1101 C.ar    1  UNL1       -0.0003
     26 C         131.9982  141.1646  155.5889 C.ar    1  UNL1        0.0294
     27 C         131.7072  140.2819  156.7663 C.ar    1  UNL1        0.1401
     28 F         130.2959  140.1113  157.2452 F       1  UNL1       -0.2042
     29 C         132.8275  139.5698  157.4648 C.ar    1  UNL1        0.0294
     30 C         134.2387  139.7404  156.9859 C.ar    1  UNL1       -0.0003
@<TRIPOS>BOND
     1    18    19    1
     2    19    20    1
     3    19    17    1
     4    17    11    1
     5    11    12   ar
     6    12    13   ar
     7    13    14   ar
     8    14     7    1
     9     7     8   am
    10     8     9    2
    11     8     1    1
    12     1     2   ar
    13     2     3   ar
    14     3    21    1
    15    21    22    1
    16    21    23    1
    17    23    24    1
    18    24    25   ar
    19    25    26   ar
    20    26    27   ar
    21    27    28    1
    22    27    29   ar
    23    29    30   ar
    24     3     4   ar
    25     4     5   ar
    26     5     6   ar
    27    14    15   ar
    28    15    16   ar
    29    16    11   ar
    30     6     1   ar
    31    30    24   ar
    32     7    10    1
@<TRIPOS>MOLECULE
*****
 30 32 0 0 0
SMALL
GASTEIGER

@<TRIPOS>ATOM
      1 C         141.3527  138.3422  158.7966 C.ar    1  UNL1        0.1393
      2 C         142.5316  138.1358  157.8922 C.ar    1  UNL1        0.0581
      3 C         142.3178  137.8306  156.4392 C.ar    1  UNL1        0.1354
      4 N         140.9252  137.7318  155.8906 N.ar    1  UNL1       -0.2090
      5 C         139.7464  137.9382  156.7949 C.ar    1  UNL1        0.2002
      6 N         139.9602  138.2434  158.2479 N.ar    1  UNL1       -0.2192
      7 N         142.3594  137.7045  161.1052 N.am    1  UNL1       -0.2791
      8 C         141.5665  138.6474  160.2495 C.2     1  UNL1        0.2674
      9 O         140.9872  139.8956  160.8468 O.2     1  UNL1       -0.2682
     10 H         142.7395  136.8853  160.7132 H       1  UNL1        0.1552
     11 C         143.0006  138.6201  165.4642 C.ar    1  UNL1        0.1385
     12 C         144.0012  139.0806  164.4460 C.ar    1  UNL1        0.0382
     13 C         143.7874  138.7754  162.9930 C.ar    1  UNL1        0.0178
     14 C         142.5731  138.0097  162.5582 C.ar    1  UNL1        0.0508
     15 C         141.5725  137.5492  163.5764 C.ar    1  UNL1        0.0178
     16 C         141.7863  137.8544  165.0294 C.ar    1  UNL1        0.0382
     17 O         143.2144  138.9253  166.9172 O.3     1  UNL1       -0.4792
     18 C         142.7451  141.4791  167.0057 C.3     1  UNL1        0.0472
     19 C         142.5227  140.0979  167.5469 C.3     1  UNL1        0.1661
     20 C         141.6086  139.8893  168.7178 C.3     1  UNL1        0.0472
     21 N         143.4966  137.6242  155.5349 N.pl3   1  UNL1       -0.2873
     22 C         143.9118  138.7080  154.5846 C.3     1  UNL1        0.1139
     23 C         144.2602  136.3339  155.5808 C.3     1  UNL1        0.1189
     24 C         143.5254  135.0264  155.5605 C.ar    1  UNL1       -0.0022
     25 C         142.6414  134.6808  154.3991 C.ar    1  UNL1       -0.0003
     26 C         141.9066  133.3733  154.3789 C.ar    1  UNL1        0.0294
     27 C         142.0559  132.4113  155.5201 C.ar    1  UNL1        0.1401
     28 F         141.3210  131.1037  155.4998 F       1  UNL1       -0.2042
     29 C         142.9399  132.7569  156.6816 C.ar    1  UNL1        0.0294
     30 C         143.6747  134.0644  156.7018 C.ar    1  UNL1       -0.0003
@<TRIPOS>BOND
     1    18    19    1
     2    19    20    1
     3    19    17    1
     4    17    11    1
     5    11    12   ar
     6    12    13   ar
     7    13    14   ar
     8    14     7    1
     9     7     8   am
    10     8     9    2
    11     8     1    1
    12     1     2   ar
    13     2     3   ar
    14     3    21    1
    15    21    22    1
    16    21    23    1
    17    23    24    1
    18    24    25   ar
    19    25    26   ar
    20    26    27   ar
    21    27    28    1
    22    27    29   ar
    23    29    30   ar
    24     3     4   ar
    25     4     5   ar
    26     5     6   ar
    27    14    15   ar
    28    15    16   ar
    29    16    11   ar
    30     6     1   ar
    31    30    24   ar
    32     7    10    1
@<TRIPOS>MOLECULE
*****
 30 32 0 0 0
SMALL
GASTEIGER

@<TRIPOS>ATOM
      1 C         139.8902  144.5588  162.9076 C.ar    1  UNL1        0.1393
      2 C         140.9605  143.6658  163.4616 C.ar    1  UNL1        0.0581
      3 C         140.9110  143.2381  164.8985 C.ar    1  UNL1        0.1354
      4 N         139.7911  143.7034  165.7813 N.ar    1  UNL1       -0.2090
      5 C         138.7208  144.5964  165.2273 C.ar    1  UNL1        0.2002
      6 N         138.7704  145.0242  163.7904 N.ar    1  UNL1       -0.2192
      7 N         140.5543  144.0857  160.4408 N.am    1  UNL1       -0.2791
      8 C         139.9398  144.9865  161.4707 C.2     1  UNL1        0.2674
      9 O         139.3748  146.3152  161.0638 O.2     1  UNL1       -0.2682
     10 H         140.9251  143.2137  160.7079 H       1  UNL1        0.1552
     11 C         140.7030  145.3688  156.1302 C.ar    1  UNL1        0.1385
     12 C         141.6699  145.9492  157.1192 C.ar    1  UNL1        0.0382
     13 C         141.6203  145.5215  158.5561 C.ar    1  UNL1        0.0178
     14 C         140.6039  144.5134  159.0039 C.ar    1  UNL1        0.0508
     15 C         139.6370  143.9330  158.0149 C.ar    1  UNL1        0.0178
     16 C         139.6866  144.3607  156.5780 C.ar    1  UNL1        0.0382
     17 O         140.7526  145.7965  154.6933 O.3     1  UNL1       -0.4792
     18 C         139.1149  147.7761  155.0797 C.3     1  UNL1        0.0472
     19 C         140.2226  147.1412  154.2923 C.3     1  UNL1        0.1661
     20 C         140.8004  147.8512  153.1040 C.3     1  UNL1        0.0472
     21 N         141.9812  142.3450  165.4525 N.pl3   1  UNL1       -0.2873
     22 C         142.8358  141.5336  164.5244 C.3     1  UNL1        0.1139
     23 C         142.1970  142.2634  166.9347 C.3     1  UNL1        0.1189
     24 C         141.1406  141.6632  167.8144 C.ar    1  UNL1       -0.0022
     25 C         140.8274  142.2863  169.1424 C.ar    1  UNL1       -0.0003
     26 C         139.7711  141.6861  170.0220 C.ar    1  UNL1        0.0294
     27 C         139.0278  140.4628  169.5737 C.ar    1  UNL1        0.1401
     28 F         137.9714  139.8625  170.4534 F       1  UNL1       -0.2042
     29 C         139.3410  139.8396  168.2457 C.ar    1  UNL1        0.0294
     30 C         140.3973  140.4398  167.3661 C.ar    1  UNL1       -0.0003
@<TRIPOS>BOND
     1    18    19    1
     2    19    20    1
     3    19    17    1
     4    17    11    1
     5    11    12   ar
     6    12    13   ar
     7    13    14   ar
     8    14     7    1
     9     7     8   am
    10     8     9    2
    11     8     1    1
    12     1     2   ar
    13     2     3   ar
    14     3    21    1
    15    21    22    1
    16    21    23    1
    17    23    24    1
    18    24    25   ar
    19    25    26   ar
    20    26    27   ar
    21    27    28    1
    22    27    29   ar
    23    29    30   ar
    24     3     4   ar
    25     4     5   ar
    26     5     6   ar
    27    14    15   ar
    28    15    16   ar
    29    16    11   ar
    30     6     1   ar
    31    30    24   ar
    32     7    10    1
@<TRIPOS>MOLECULE
*****
 30 32 0 0 0
SMALL
GASTEIGER

@<TRIPOS>ATOM
      1 C         141.4049  144.1178  159.1484 C.ar    1  UNL1        0.1393
      2 C         140.2470  143.2004  159.4092 C.ar    1  UNL1        0.0581
      3 C         140.3899  142.0717  160.3868 C.ar    1  UNL1        0.1354
      4 N         141.6906  141.8604  161.1035 N.ar    1  UNL1       -0.2090
      5 C         142.8483  142.7777  160.8426 C.ar    1  UNL1        0.2002
      6 N         142.7055  143.9064  159.8651 N.ar    1  UNL1       -0.2192
      7 N         140.0010  145.3916  157.3718 N.am    1  UNL1       -0.2791
      8 C         141.2621  145.2465  158.1708 C.2     1  UNL1        0.2674
      9 O         142.3804  146.2302  157.9924 O.2     1  UNL1       -0.2682
     10 H         139.2670  144.7460  157.4889 H       1  UNL1        0.1552
     11 C         139.5725  148.7777  154.4391 C.ar    1  UNL1        0.1385
     12 C         138.8792  148.8438  155.7676 C.ar    1  UNL1        0.0382
     13 C         139.0220  147.7151  156.7452 C.ar    1  UNL1        0.0178
     14 C         139.8581  146.5203  156.3942 C.ar    1  UNL1        0.0508
     15 C         140.5514  146.4542  155.0658 C.ar    1  UNL1        0.0178
     16 C         140.4086  147.5829  154.0882 C.ar    1  UNL1        0.0382
     17 O         139.4296  149.9064  153.4616 O.3     1  UNL1       -0.4792
     18 C         138.5524  152.1757  154.3731 C.3     1  UNL1        0.0472
     19 C         139.6882  151.3169  153.9016 C.3     1  UNL1        0.1661
     20 C         141.0828  151.8687  153.8700 C.3     1  UNL1        0.0472
     21 N         139.2321  141.1544  160.6476 N.pl3   1  UNL1       -0.2873
     22 C         138.5311  140.4869  159.5017 C.3     1  UNL1        0.1139
     23 C         138.7753  140.9046  162.0544 C.3     1  UNL1        0.1189
     24 C         138.7061  142.0392  163.0331 C.ar    1  UNL1       -0.0022
     25 C         137.7771  143.1900  162.7829 C.ar    1  UNL1       -0.0003
     26 C         137.7079  144.3245  163.7617 C.ar    1  UNL1        0.0294
     27 C         138.5678  144.3083  164.9906 C.ar    1  UNL1        0.1401
     28 F         138.4986  145.4430  165.9694 F       1  UNL1       -0.2042
     29 C         139.4969  143.1576  165.2408 C.ar    1  UNL1        0.0294
     30 C         139.5660  142.0231  164.2621 C.ar    1  UNL1       -0.0003
@<TRIPOS>BOND
     1    18    19    1
     2    19    20    1
     3    19    17    1
     4    17    11    1
     5    11    12   ar
     6    12    13   ar
     7    13    14   ar
     8    14     7    1
     9     7     8   am
    10     8     9    2
    11     8     1    1
    12     1     2   ar
    13     2     3   ar
    14     3    21    1
    15    21    22    1
    16    21    23    1
    17    23    24    1
    18    24    25   ar
    19    25    26   ar
    20    26    27   ar
    21    27    28    1
    22    27    29   ar
    23    29    30   ar
    24     3     4   ar
    25     4     5   ar
    26     5     6   ar
    27    14    15   ar
    28    15    16   ar
    29    16    11   ar
    30     6     1   ar
    31    30    24   ar
    32     7    10    1
@<TRIPOS>MOLECULE
*****
 30 32 0 0 0
SMALL
GASTEIGER

@<TRIPOS>ATOM
      1 C         139.9062  138.9264  164.0074 C.ar    1  UNL1        0.1393
      2 C         140.5188  140.1794  164.5596 C.ar    1  UNL1        0.0581
      3 C         140.0929  140.6935  165.9028 C.ar    1  UNL1        0.1354
      4 N         139.0545  139.9545  166.6939 N.ar    1  UNL1       -0.2090
      5 C         138.4420  138.7016  166.1417 C.ar    1  UNL1        0.2002
      6 N         138.8679  138.1875  164.7985 N.ar    1  UNL1       -0.2192
      7 N         140.3017  139.3194  161.4698 N.am    1  UNL1       -0.2791
      8 C         140.3321  138.4123  162.6641 C.2     1  UNL1        0.2674
      9 O         140.7884  136.9911  162.5152 O.2     1  UNL1       -0.2682
     10 H         140.0022  140.2521  161.5676 H       1  UNL1        0.1552
     11 C         141.5793  137.7772  157.4400 C.ar    1  UNL1        0.1385
     12 C         142.6071  138.0592  158.4955 C.ar    1  UNL1        0.0382
     13 C         142.1812  138.5733  159.8387 C.ar    1  UNL1        0.0178
     14 C         140.7276  138.8053  160.1266 C.ar    1  UNL1        0.0508
     15 C         139.6997  138.5232  159.0712 C.ar    1  UNL1        0.0178
     16 C         140.1256  138.0092  157.7279 C.ar    1  UNL1        0.0382
     17 O         142.0052  137.2631  156.0968 O.3     1  UNL1       -0.4792
     18 C         143.3809  135.0843  156.4284 C.3     1  UNL1        0.0472
     19 C         143.2923  136.5056  155.9572 C.3     1  UNL1        0.1661
     20 C         144.4908  137.1694  155.3465 C.3     1  UNL1        0.0472
     21 N         140.7054  141.9464  166.4550 N.pl3   1  UNL1       -0.2873
     22 C         142.0348  141.8893  167.1476 C.3     1  UNL1        0.1139
     23 C         139.9885  143.2566  166.3147 C.3     1  UNL1        0.1189
     24 C         139.9200  143.9347  164.9785 C.ar    1  UNL1       -0.0022
     25 C         141.1724  144.4506  164.3341 C.ar    1  UNL1       -0.0003
     26 C         141.1038  145.1287  162.9979 C.ar    1  UNL1        0.0294
     27 C         139.7828  145.2908  162.3060 C.ar    1  UNL1        0.1401
     28 F         139.7143  145.9689  160.9698 F       1  UNL1       -0.2042
     29 C         138.5304  144.7748  162.9504 C.ar    1  UNL1        0.0294
     30 C         138.5990  144.0968  164.2866 C.ar    1  UNL1       -0.0003
@<TRIPOS>BOND
     1    18    19    1
     2    19    20    1
     3    19    17    1
     4    17    11    1
     5    11    12   ar
     6    12    13   ar
     7    13    14   ar
     8    14     7    1
     9     7     8   am
    10     8     9    2
    11     8     1    1
    12     1     2   ar
    13     2     3   ar
    14     3    21    1
    15    21    22    1
    16    21    23    1
    17    23    24    1
    18    24    25   ar
    19    25    26   ar
    20    26    27   ar
    21    27    28    1
    22    27    29   ar
    23    29    30   ar
    24     3     4   ar
    25     4     5   ar
    26     5     6   ar
    27    14    15   ar
    28    15    16   ar
    29    16    11   ar
    30     6     1   ar
    31    30    24   ar
    32     7    10    1
@<TRIPOS>MOLECULE
*****
 30 32 0 0 0
SMALL
GASTEIGER

@<TRIPOS>ATOM
      1 C         140.3741  138.5180  158.8419 C.ar    1  UNL1        0.1393
      2 C         141.6612  137.9981  158.2734 C.ar    1  UNL1        0.0581
      3 C         141.8035  137.8058  156.7926 C.ar    1  UNL1        0.1354
      4 N         140.6587  138.1333  155.8803 N.ar    1  UNL1       -0.2090
      5 C         139.3717  138.6532  156.4489 C.ar    1  UNL1        0.2002
      6 N         139.2293  138.8455  157.9297 N.ar    1  UNL1       -0.2192
      7 N         138.9032  138.4904  160.9834 N.am    1  UNL1       -0.2791
      8 C         140.2318  138.7104  160.3227 C.2     1  UNL1        0.2674
      9 O         141.4181  139.1228  161.1429 O.2     1  UNL1       -0.2682
     10 H         138.1246  138.2197  160.4451 H       1  UNL1        0.1552
     11 C         138.4763  139.0674  165.4257 C.ar    1  UNL1        0.1385
     12 C         138.0983  140.1737  164.4860 C.ar    1  UNL1        0.0382
     13 C         138.2406  139.9814  163.0052 C.ar    1  UNL1        0.0178
     14 C         138.7609  138.6827  162.4641 C.ar    1  UNL1        0.0508
     15 C         139.1389  137.5764  163.4039 C.ar    1  UNL1        0.0178
     16 C         138.9966  137.7688  164.8847 C.ar    1  UNL1        0.0382
     17 O         138.3340  139.2598  166.9065 O.3     1  UNL1       -0.4792
     18 C         140.7886  140.0996  167.0456 C.3     1  UNL1        0.0472
     19 C         139.4578  139.8629  167.6959 C.3     1  UNL1        0.1661
     20 C         139.2509  140.2292  169.1358 C.3     1  UNL1        0.0472
     21 N         143.0905  137.2859  156.2241 N.pl3   1  UNL1       -0.2873
     22 C         143.9335  138.1656  155.3491 C.3     1  UNL1        0.1139
     23 C         143.5347  135.8863  156.5306 C.3     1  UNL1        0.1189
     24 C         143.2079  134.7711  155.5821 C.ar    1  UNL1       -0.0022
     25 C         143.7103  133.3841  155.8536 C.ar    1  UNL1       -0.0003
     26 C         143.3835  132.2690  154.9051 C.ar    1  UNL1        0.0294
     27 C         142.5543  132.5409  153.6851 C.ar    1  UNL1        0.1401
     28 F         142.2275  131.4257  152.7366 F       1  UNL1       -0.2042
     29 C         142.0518  133.9279  153.4136 C.ar    1  UNL1        0.0294
     30 C         142.3786  135.0430  154.3621 C.ar    1  UNL1       -0.0003
@<TRIPOS>BOND
     1    18    19    1
     2    19    20    1
     3    19    17    1
     4    17    11    1
     5    11    12   ar
     6    12    13   ar
     7    13    14   ar
     8    14     7    1
     9     7     8   am
    10     8     9    2
    11     8     1    1
    12     1     2   ar
    13     2     3   ar
    14     3    21    1
    15    21    22    1
    16    21    23    1
    17    23    24    1
    18    24    25   ar
    19    25    26   ar
    20    26    27   ar
    21    27    28    1
    22    27    29   ar
    23    29    30   ar
    24     3     4   ar
    25     4     5   ar
    26     5     6   ar
    27    14    15   ar
    28    15    16   ar
    29    16    11   ar
    30     6     1   ar
    31    30    24   ar
    32     7    10    1
@<TRIPOS>MOLECULE
*****
 30 32 0 0 0
SMALL
GASTEIGER

@<TRIPOS>ATOM
      1 C         140.1844  142.5828  159.6918 C.ar    1  UNL1        0.1393
      2 C         139.3130  142.2816  160.8750 C.ar    1  UNL1        0.0581
      3 C         138.9038  143.3848  161.8053 C.ar    1  UNL1        0.1354
      4 N         139.3660  144.7893  161.5524 N.ar    1  UNL1       -0.2090
      5 C         140.2374  145.0904  160.3692 C.ar    1  UNL1        0.2002
      6 N         140.6466  143.9872  159.4389 N.ar    1  UNL1       -0.2192
      7 N         140.5599  140.0543  159.2276 N.am    1  UNL1       -0.2791
      8 C         140.5937  141.4796  158.7615 C.2     1  UNL1        0.2674
      9 O         141.0366  141.8017  157.3650 O.2     1  UNL1       -0.2682
     10 H         140.2692  139.8429  160.1442 H       1  UNL1        0.1552
     11 C         141.7876  136.7446  156.4368 C.ar    1  UNL1        0.1385
     12 C         140.3629  137.2129  156.4640 C.ar    1  UNL1        0.0382
     13 C         139.9536  138.3161  157.3943 C.ar    1  UNL1        0.0178
     14 C         140.9692  138.9511  158.2974 C.ar    1  UNL1        0.0508
     15 C         142.3939  138.4828  158.2701 C.ar    1  UNL1        0.0178
     16 C         142.8031  137.3795  157.3398 C.ar    1  UNL1        0.0382
     17 O         142.1968  135.6414  155.5065 O.3     1  UNL1       -0.4792
     18 C         141.3629  133.1846  155.3695 C.3     1  UNL1        0.0472
     19 C         142.2426  134.2247  155.9973 C.3     1  UNL1        0.1661
     20 C         143.1682  133.8481  157.1161 C.3     1  UNL1        0.0472
     21 N         138.0324  143.0836  162.9885 N.pl3   1  UNL1       -0.2873
     22 C         137.9476  144.0588  164.1251 C.3     1  UNL1        0.1139
     23 C         137.2457  141.8073  163.0350 C.3     1  UNL1        0.1189
     24 C         137.8669  140.5635  163.5984 C.ar    1  UNL1       -0.0022
     25 C         138.1356  139.3887  162.7054 C.ar    1  UNL1       -0.0003
     26 C         138.7567  138.1450  163.2688 C.ar    1  UNL1        0.0294
     27 C         139.1092  138.0762  164.7251 C.ar    1  UNL1        0.1401
     28 F         139.7304  136.8325  165.2885 F       1  UNL1       -0.2042
     29 C         138.8405  139.2511  165.6181 C.ar    1  UNL1        0.0294
     30 C         138.2194  140.4947  165.0548 C.ar    1  UNL1       -0.0003
@<TRIPOS>BOND
     1    18    19    1
     2    19    20    1
     3    19    17    1
     4    17    11    1
     5    11    12   ar
     6    12    13   ar
     7    13    14   ar
     8    14     7    1
     9     7     8   am
    10     8     9    2
    11     8     1    1
    12     1     2   ar
    13     2     3   ar
    14     3    21    1
    15    21    22    1
    16    21    23    1
    17    23    24    1
    18    24    25   ar
    19    25    26   ar
    20    26    27   ar
    21    27    28    1
    22    27    29   ar
    23    29    30   ar
    24     3     4   ar
    25     4     5   ar
    26     5     6   ar
    27    14    15   ar
    28    15    16   ar
    29    16    11   ar
    30     6     1   ar
    31    30    24   ar
    32     7    10    1
