@<TRIPOS>MOLECULE
*****
 36 39 0 0 0
SMALL
GASTEIGER

@<TRIPOS>ATOM
      1 N         143.3063  140.3995  160.9279 N.3     1  UNL1       -0.2673
      2 C         142.1168  140.4983  160.0194 C.3     1  UNL1        0.1035
      3 C         141.3607  141.7893  159.9116 C.3     1  UNL1        0.1470
      4 C         140.6045  143.0803  159.8038 C.3     1  UNL1        0.1035
      5 N         141.0378  144.2724  160.6046 N.3     1  UNL1       -0.2684
      6 C         142.2273  144.1735  161.5131 C.3     1  UNL1        0.1035
      7 C         142.9834  142.8825  161.6209 C.3     1  UNL1        0.1470
      8 C         143.7396  141.5915  161.7287 C.3     1  UNL1        0.1035
      9 O         141.7940  142.9814  160.7124 O.3     1  UNL1       -0.3530
     10 C         144.0625  139.1084  161.0357 C.3     1  UNL1        0.0916
     11 C         144.0268  138.3228  162.3130 C.3     1  UNL1        0.1131
     12 C         141.5835  137.6108  162.8356 C.3     1  UNL1        0.1149
     13 N         142.8169  138.3838  163.1976 N.3     1  UNL1       -0.1526
     14 S         142.8405  139.2178  164.4441 S.O2    1  UNL1        0.0634
     15 O         144.3394  139.1622  164.4530 O.2     1  UNL1       -0.1528
     16 O         141.3415  139.2734  164.4352 O.2     1  UNL1       -0.1528
     17 C         142.8641  140.0518  165.6907 C.ar    1  UNL1        0.1222
     18 C         143.1796  141.5158  165.6077 C.ar    1  UNL1        0.0206
     19 C         143.2032  142.3498  166.8542 C.ar    1  UNL1        0.0116
     20 C         142.9112  141.7198  168.1838 C.ar    1  UNL1        0.0685
     21 C         142.5956  140.2557  168.2668 C.ar    1  UNL1        0.0116
     22 C         142.5720  139.4217  167.0203 C.ar    1  UNL1        0.0206
     23 C         142.9348  142.5538  169.4303 C.1     1  UNL1        0.1004
     24 N         142.9584  143.3878  170.6769 N.1     1  UNL1       -0.1908
     25 C         140.2817  145.5634  160.4968 C.3     1  UNL1        0.0761
     26 C         139.7710  146.2390  161.7349 C.3     1  UNL1        0.0646
     27 C         138.9458  145.4694  162.7232 C.3     1  UNL1        0.2070
     28 O         137.9410  144.4656  162.2408 O.3     1  UNL1       -0.4731
     29 C         137.9993  143.0499  162.7333 C.ar    1  UNL1        0.1659
     30 C         137.9236  141.9128  161.7580 C.ar    1  UNL1        0.0415
     31 C         137.9818  140.4972  162.2505 C.ar    1  UNL1        0.0329
     32 C         138.1158  140.2187  163.7183 C.ar    1  UNL1        0.1426
     33 F         138.1740  138.8030  164.2108 F       1  UNL1       -0.2041
     34 C         138.1915  141.3558  164.6936 C.ar    1  UNL1        0.0624
     35 C         138.1333  142.7714  164.2011 C.ar    1  UNL1        0.1760
     36 F         138.2090  143.9086  165.1764 F       1  UNL1       -0.2009
@<TRIPOS>BOND
     1    12    13    1
     2    13    11    1
     3    11    10    1
     4    10     1    1
     5     1     2    1
     6     2     3    1
     7     3     4    1
     8     4     5    1
     9     5    25    1
    10    25    26    1
    11    26    27    1
    12    27    28    1
    13    28    29    1
    14    29    30   ar
    15    30    31   ar
    16    31    32   ar
    17    32    33    1
    18    32    34   ar
    19    34    35   ar
    20    35    36    1
    21     5     6    1
    22     6     7    1
    23     7     8    1
    24     7     9    1
    25    13    14    1
    26    14    15    2
    27    14    16    2
    28    14    17    1
    29    17    18   ar
    30    18    19   ar
    31    19    20   ar
    32    20    23    1
    33    23    24    3
    34    20    21   ar
    35    21    22   ar
    36     8     1    1
    37    22    17   ar
    38     9     3    1
    39    35    29   ar
@<TRIPOS>MOLECULE
*****
 36 39 0 0 0
SMALL
GASTEIGER

@<TRIPOS>ATOM
      1 N         144.6227  141.5557  163.1062 N.3     1  UNL1       -0.2673
      2 C         143.9894  142.8182  163.6111 C.3     1  UNL1        0.1035
      3 C         143.1837  143.6767  162.6817 C.3     1  UNL1        0.1470
      4 C         142.3780  144.5354  161.7523 C.3     1  UNL1        0.1035
      5 N         142.2056  144.1314  160.3181 N.3     1  UNL1       -0.2684
      6 C         142.8390  142.8689  159.8132 C.3     1  UNL1        0.1035
      7 C         143.6447  142.0103  160.7425 C.3     1  UNL1        0.1470
      8 C         144.4503  141.1518  161.6719 C.3     1  UNL1        0.1035
      9 O         143.0113  143.2728  161.2475 O.3     1  UNL1       -0.3530
     10 C         145.4284  140.6971  164.0356 C.3     1  UNL1        0.0916
     11 C         144.9075  139.3555  164.4582 C.3     1  UNL1        0.1131
     12 C         142.6807  138.2464  163.7090 C.3     1  UNL1        0.1149
     13 N         143.4334  139.1473  164.6426 N.3     1  UNL1       -0.1526
     14 S         142.7122  139.8402  165.7605 S.O2    1  UNL1        0.0634
     15 O         143.5756  139.1277  166.7590 O.2     1  UNL1       -0.1528
     16 O         141.8489  140.5527  164.7620 O.2     1  UNL1       -0.1528
     17 C         141.9910  140.5330  166.8785 C.ar    1  UNL1        0.1222
     18 C         142.6056  141.7317  167.5383 C.ar    1  UNL1        0.0206
     19 C         141.8844  142.4246  168.6563 C.ar    1  UNL1        0.0116
     20 C         140.5487  141.9187  169.1144 C.ar    1  UNL1        0.0685
     21 C         139.9341  140.7199  168.4546 C.ar    1  UNL1        0.0116
     22 C         140.6553  140.0271  167.3366 C.ar    1  UNL1        0.0206
     23 C         139.8275  142.6115  170.2324 C.1     1  UNL1        0.1004
     24 N         139.1063  143.3044  171.3504 N.1     1  UNL1       -0.1908
     25 C         141.4000  144.9900  159.3887 C.3     1  UNL1        0.0761
     26 C         140.0059  144.5841  159.0117 C.3     1  UNL1        0.0646
     27 C         139.4491  143.2773  159.4936 C.3     1  UNL1        0.2070
     28 O         138.1745  143.2511  160.2840 O.3     1  UNL1       -0.4731
     29 C         138.0939  142.4519  161.5508 C.ar    1  UNL1        0.1659
     30 C         138.3358  140.9719  161.5206 C.ar    1  UNL1        0.0415
     31 C         138.2552  140.1727  162.7874 C.ar    1  UNL1        0.0329
     32 C         137.9326  140.8536  164.0844 C.ar    1  UNL1        0.1426
     33 F         137.8520  140.0544  165.3513 F       1  UNL1       -0.2041
     34 C         137.6907  142.3337  164.1147 C.ar    1  UNL1        0.0624
     35 C         137.7713  143.1328  162.8479 C.ar    1  UNL1        0.1760
     36 F         137.5294  144.6129  162.8781 F       1  UNL1       -0.2009
@<TRIPOS>BOND
     1    12    13    1
     2    13    11    1
     3    11    10    1
     4    10     1    1
     5     1     2    1
     6     2     3    1
     7     3     4    1
     8     4     5    1
     9     5    25    1
    10    25    26    1
    11    26    27    1
    12    27    28    1
    13    28    29    1
    14    29    30   ar
    15    30    31   ar
    16    31    32   ar
    17    32    33    1
    18    32    34   ar
    19    34    35   ar
    20    35    36    1
    21     5     6    1
    22     6     7    1
    23     7     8    1
    24     7     9    1
    25    13    14    1
    26    14    15    2
    27    14    16    2
    28    14    17    1
    29    17    18   ar
    30    18    19   ar
    31    19    20   ar
    32    20    23    1
    33    23    24    3
    34    20    21   ar
    35    21    22   ar
    36     8     1    1
    37    22    17   ar
    38     9     3    1
    39    35    29   ar
@<TRIPOS>MOLECULE
*****
 36 39 0 0 0
SMALL
GASTEIGER

@<TRIPOS>ATOM
      1 N         142.6856  142.9853  161.1630 N.3     1  UNL1       -0.2673
      2 C         143.6973  143.3861  162.1954 C.3     1  UNL1        0.1035
      3 C         144.2144  142.3719  163.1720 C.3     1  UNL1        0.1470
      4 C         144.7315  141.3576  164.1488 C.3     1  UNL1        0.1035
      5 N         144.2369  139.9426  164.0931 N.3     1  UNL1       -0.2684
      6 C         143.2252  139.5419  163.0607 C.3     1  UNL1        0.1035
      7 C         142.7081  140.5561  162.0840 C.3     1  UNL1        0.1470
      8 C         142.1910  141.5703  161.1074 C.3     1  UNL1        0.1035
      9 O         143.7198  140.9569  163.1164 O.3     1  UNL1       -0.3530
     10 C         142.1684  143.9996  160.1863 C.3     1  UNL1        0.0916
     11 C         140.7153  144.3716  160.1902 C.3     1  UNL1        0.1131
     12 C         139.7565  146.1646  161.8075 C.3     1  UNL1        0.1149
     13 N         140.0358  144.7279  161.4791 N.3     1  UNL1       -0.1526
     14 S         139.6355  143.6475  162.4396 S.O2    1  UNL1        0.0634
     15 O         140.4943  144.2715  163.4994 O.2     1  UNL1       -0.1528
     16 O         138.7767  143.0235  161.3798 O.2     1  UNL1       -0.1528
     17 C         139.2352  142.5671  163.4000 C.ar    1  UNL1        0.1222
     18 C         139.7646  142.5773  164.8035 C.ar    1  UNL1        0.0206
     19 C         139.3643  141.4969  165.7639 C.ar    1  UNL1        0.0116
     20 C         138.4347  140.4062  165.3209 C.ar    1  UNL1        0.0685
     21 C         137.9053  140.3960  163.9174 C.ar    1  UNL1        0.0116
     22 C         138.3056  141.4764  162.9570 C.ar    1  UNL1        0.0206
     23 C         138.0344  139.3258  166.2814 C.1     1  UNL1        0.1004
     24 N         137.6342  138.2454  167.2419 N.1     1  UNL1       -0.1908
     25 C         144.7540  138.9284  165.0698 C.3     1  UNL1        0.0761
     26 C         143.8349  138.3435  166.1010 C.3     1  UNL1        0.0646
     27 C         142.8363  139.2189  166.7984 C.3     1  UNL1        0.2070
     28 O         142.9542  139.4631  168.2736 O.3     1  UNL1       -0.4731
     29 C         142.0047  140.4022  168.9567 C.ar    1  UNL1        0.1659
     30 C         140.5443  140.0683  169.0330 C.ar    1  UNL1        0.0415
     31 C         139.5949  141.0074  169.7160 C.ar    1  UNL1        0.0329
     32 C         140.1059  142.2806  170.3227 C.ar    1  UNL1        0.1426
     33 F         139.1564  143.2198  171.0057 F       1  UNL1       -0.2041
     34 C         141.5662  142.6145  170.2464 C.ar    1  UNL1        0.0624
     35 C         142.5156  141.6754  169.5634 C.ar    1  UNL1        0.1760
     36 F         143.9760  142.0093  169.4871 F       1  UNL1       -0.2009
@<TRIPOS>BOND
     1    12    13    1
     2    13    11    1
     3    11    10    1
     4    10     1    1
     5     1     2    1
     6     2     3    1
     7     3     4    1
     8     4     5    1
     9     5    25    1
    10    25    26    1
    11    26    27    1
    12    27    28    1
    13    28    29    1
    14    29    30   ar
    15    30    31   ar
    16    31    32   ar
    17    32    33    1
    18    32    34   ar
    19    34    35   ar
    20    35    36    1
    21     5     6    1
    22     6     7    1
    23     7     8    1
    24     7     9    1
    25    13    14    1
    26    14    15    2
    27    14    16    2
    28    14    17    1
    29    17    18   ar
    30    18    19   ar
    31    19    20   ar
    32    20    23    1
    33    23    24    3
    34    20    21   ar
    35    21    22   ar
    36     8     1    1
    37    22    17   ar
    38     9     3    1
    39    35    29   ar
@<TRIPOS>MOLECULE
*****
 36 39 0 0 0
SMALL
GASTEIGER

@<TRIPOS>ATOM
      1 N         142.9917  140.8708  168.7091 N.3     1  UNL1       -0.2673
      2 C         143.2724  142.2392  168.1628 C.3     1  UNL1        0.1035
      3 C         143.4695  142.4321  166.6884 C.3     1  UNL1        0.1470
      4 C         143.6667  142.6251  165.2139 C.3     1  UNL1        0.1035
      5 N         143.5831  141.4496  164.2859 N.3     1  UNL1       -0.2684
      6 C         143.3023  140.0811  164.8323 C.3     1  UNL1        0.1035
      7 C         143.1052  139.8882  166.3067 C.3     1  UNL1        0.1470
      8 C         142.9081  139.6953  167.7811 C.3     1  UNL1        0.1035
      9 O         143.3859  141.2566  165.7604 O.3     1  UNL1       -0.3530
     10 C         142.7946  140.6778  170.1836 C.3     1  UNL1        0.0916
     11 C         141.4151  140.7357  170.7698 C.3     1  UNL1        0.1131
     12 C         139.6402  142.6291  170.6472 C.3     1  UNL1        0.1149
     13 N         140.3153  141.4396  170.0314 N.3     1  UNL1       -0.1526
     14 S         139.8907  140.9540  168.6772 S.O2    1  UNL1        0.0634
     15 O         140.0986  142.3304  168.1184 O.2     1  UNL1       -0.1528
     16 O         139.6829  139.5776  169.2359 O.2     1  UNL1       -0.1528
     17 C         139.4662  140.4684  167.3229 C.ar    1  UNL1        0.1222
     18 C         139.8782  141.2215  166.0929 C.ar    1  UNL1        0.0206
     19 C         139.4536  140.7358  164.7387 C.ar    1  UNL1        0.0116
     20 C         138.6170  139.4971  164.6145 C.ar    1  UNL1        0.0685
     21 C         138.2049  138.7439  165.8446 C.ar    1  UNL1        0.0116
     22 C         138.6295  139.2295  167.1988 C.ar    1  UNL1        0.0206
     23 C         138.1925  139.0114  163.2603 C.1     1  UNL1        0.1004
     24 N         137.7679  138.5258  161.9061 N.1     1  UNL1       -0.1908
     25 C         143.7802  141.6425  162.8115 C.3     1  UNL1        0.0761
     26 C         142.8625  140.9653  161.8371 C.3     1  UNL1        0.0646
     27 C         141.6199  141.6625  161.3683 C.3     1  UNL1        0.2070
     28 O         141.4161  143.1171  161.6722 O.3     1  UNL1       -0.4731
     29 C         140.3301  143.5412  162.6160 C.ar    1  UNL1        0.1659
     30 C         140.6823  144.1907  163.9214 C.ar    1  UNL1        0.0415
     31 C         139.5963  144.6147  164.8652 C.ar    1  UNL1        0.0329
     32 C         138.1581  144.3892  164.5037 C.ar    1  UNL1        0.1426
     33 F         137.0721  144.8132  165.4476 F       1  UNL1       -0.2041
     34 C         137.8059  143.7397  163.1983 C.ar    1  UNL1        0.0624
     35 C         138.8919  143.3157  162.2545 C.ar    1  UNL1        0.1760
     36 F         138.5397  142.6662  160.9490 F       1  UNL1       -0.2009
@<TRIPOS>BOND
     1    12    13    1
     2    13    11    1
     3    11    10    1
     4    10     1    1
     5     1     2    1
     6     2     3    1
     7     3     4    1
     8     4     5    1
     9     5    25    1
    10    25    26    1
    11    26    27    1
    12    27    28    1
    13    28    29    1
    14    29    30   ar
    15    30    31   ar
    16    31    32   ar
    17    32    33    1
    18    32    34   ar
    19    34    35   ar
    20    35    36    1
    21     5     6    1
    22     6     7    1
    23     7     8    1
    24     7     9    1
    25    13    14    1
    26    14    15    2
    27    14    16    2
    28    14    17    1
    29    17    18   ar
    30    18    19   ar
    31    19    20   ar
    32    20    23    1
    33    23    24    3
    34    20    21   ar
    35    21    22   ar
    36     8     1    1
    37    22    17   ar
    38     9     3    1
    39    35    29   ar
@<TRIPOS>MOLECULE
*****
 36 39 0 0 0
SMALL
GASTEIGER

@<TRIPOS>ATOM
      1 N         141.4397  141.8805  159.1438 N.3     1  UNL1       -0.2673
      2 C         140.1095  141.2505  159.4330 C.3     1  UNL1        0.1035
      3 C         139.1777  141.8863  160.4217 C.3     1  UNL1        0.1470
      4 C         138.2458  142.5221  161.4104 C.3     1  UNL1        0.1035
      5 N         138.6443  143.7878  162.1099 N.3     1  UNL1       -0.2684
      6 C         139.9745  144.4177  161.8206 C.3     1  UNL1        0.1035
      7 C         140.9063  143.7820  160.8320 C.3     1  UNL1        0.1470
      8 C         141.8381  143.1462  159.8433 C.3     1  UNL1        0.1035
      9 O         139.5761  143.1520  161.1212 O.3     1  UNL1       -0.3530
     10 C         142.3716  141.2447  158.1551 C.3     1  UNL1        0.0916
     11 C         143.4255  140.2870  158.6264 C.3     1  UNL1        0.1131
     12 C         142.6428  137.8097  158.6061 C.3     1  UNL1        0.1149
     13 N         143.0316  139.0430  159.3662 N.3     1  UNL1       -0.1526
     14 S         143.0267  139.0323  160.8662 S.O2    1  UNL1        0.0634
     15 O         144.1341  140.0440  160.8770 O.2     1  UNL1       -0.1528
     16 O         141.9193  138.0206  160.8553 O.2     1  UNL1       -0.1528
     17 C         143.0218  139.0216  162.3661 C.ar    1  UNL1        0.1222
     18 C         144.0367  139.8238  163.1252 C.ar    1  UNL1        0.0206
     19 C         144.0318  139.8131  164.6252 C.ar    1  UNL1        0.0116
     20 C         143.0119  139.0002  165.3660 C.ar    1  UNL1        0.0685
     21 C         141.9969  138.1979  164.6069 C.ar    1  UNL1        0.0116
     22 C         142.0018  138.2086  163.1070 C.ar    1  UNL1        0.0206
     23 C         143.0069  138.9895  166.8660 C.1     1  UNL1        0.1004
     24 N         143.0020  138.9788  168.3659 N.1     1  UNL1       -0.1908
     25 C         137.7125  144.4235  163.0985 C.3     1  UNL1        0.0761
     26 C         137.8236  144.0887  164.5565 C.3     1  UNL1        0.0646
     27 C         139.1620  144.1186  165.2330 C.3     1  UNL1        0.2070
     28 O         140.0855  142.9419  165.1208 O.3     1  UNL1       -0.4731
     29 C         139.5791  141.5605  165.4132 C.ar    1  UNL1        0.1659
     30 C         138.9494  140.7460  164.3224 C.ar    1  UNL1        0.0415
     31 C         138.4431  139.3647  164.6149 C.ar    1  UNL1        0.0329
     32 C         138.5665  138.7979  165.9982 C.ar    1  UNL1        0.1426
     33 F         138.0602  137.4165  166.2906 F       1  UNL1       -0.2041
     34 C         139.1963  139.6125  167.0890 C.ar    1  UNL1        0.0624
     35 C         139.7026  140.9938  166.7965 C.ar    1  UNL1        0.1760
     36 F         140.3323  141.8084  167.8874 F       1  UNL1       -0.2009
@<TRIPOS>BOND
     1    12    13    1
     2    13    11    1
     3    11    10    1
     4    10     1    1
     5     1     2    1
     6     2     3    1
     7     3     4    1
     8     4     5    1
     9     5    25    1
    10    25    26    1
    11    26    27    1
    12    27    28    1
    13    28    29    1
    14    29    30   ar
    15    30    31   ar
    16    31    32   ar
    17    32    33    1
    18    32    34   ar
    19    34    35   ar
    20    35    36    1
    21     5     6    1
    22     6     7    1
    23     7     8    1
    24     7     9    1
    25    13    14    1
    26    14    15    2
    27    14    16    2
    28    14    17    1
    29    17    18   ar
    30    18    19   ar
    31    19    20   ar
    32    20    23    1
    33    23    24    3
    34    20    21   ar
    35    21    22   ar
    36     8     1    1
    37    22    17   ar
    38     9     3    1
    39    35    29   ar
@<TRIPOS>MOLECULE
*****
 36 39 0 0 0
SMALL
GASTEIGER

@<TRIPOS>ATOM
      1 N         142.8720  138.7561  165.6714 N.3     1  UNL1       -0.2673
      2 C         143.9198  139.3444  164.7736 C.3     1  UNL1        0.1035
      3 C         143.7770  139.2379  163.2842 C.3     1  UNL1        0.1470
      4 C         143.6342  139.1314  161.7948 C.3     1  UNL1        0.1035
      5 N         142.4437  138.4366  161.2032 N.3     1  UNL1       -0.2684
      6 C         141.3959  137.8484  162.1011 C.3     1  UNL1        0.1035
      7 C         141.5387  137.9549  163.5905 C.3     1  UNL1        0.1470
      8 C         141.6814  138.0614  165.0798 C.3     1  UNL1        0.1035
      9 O         142.5864  138.5431  162.6927 O.3     1  UNL1       -0.3530
     10 C         143.0147  138.8626  167.1608 C.3     1  UNL1        0.0916
     11 C         142.6151  140.1258  167.8641 C.3     1  UNL1        0.1131
     12 C         140.1351  140.2052  168.6342 C.3     1  UNL1        0.1149
     13 N         141.2231  140.6627  167.7086 N.3     1  UNL1       -0.1526
     14 S         140.9193  141.6570  166.6274 S.O2    1  UNL1        0.0634
     15 O         139.5456  141.0735  166.4769 O.2     1  UNL1       -0.1528
     16 O         142.2929  142.2405  166.7779 O.2     1  UNL1       -0.1528
     17 C         140.6154  142.6513  165.5462 C.ar    1  UNL1        0.1222
     18 C         141.3434  142.5812  164.2366 C.ar    1  UNL1        0.0206
     19 C         141.0395  143.5756  163.1554 C.ar    1  UNL1        0.0116
     20 C         140.0077  144.6400  163.3838 C.ar    1  UNL1        0.0685
     21 C         139.2796  144.7101  164.6935 C.ar    1  UNL1        0.0116
     22 C         139.5835  143.7158  165.7747 C.ar    1  UNL1        0.0206
     23 C         139.7038  145.6343  162.3027 C.1     1  UNL1        0.1004
     24 N         139.3999  146.6287  161.2215 N.1     1  UNL1       -0.1908
     25 C         142.3009  138.3301  159.7139 C.3     1  UNL1        0.0761
     26 C         141.3261  139.2102  158.9890 C.3     1  UNL1        0.0646
     27 C         140.1264  138.6082  158.3195 C.3     1  UNL1        0.2070
     28 O         138.7651  139.1934  158.5525 O.3     1  UNL1       -0.4731
     29 C         138.4712  139.9239  159.8292 C.ar    1  UNL1        0.1659
     30 C         138.1035  139.1568  161.0646 C.ar    1  UNL1        0.0415
     31 C         137.8097  139.8874  162.3413 C.ar    1  UNL1        0.0329
     32 C         137.8835  141.3850  162.3825 C.ar    1  UNL1        0.1426
     33 F         137.5897  142.1155  163.6593 F       1  UNL1       -0.2041
     34 C         138.2513  142.1521  161.1471 C.ar    1  UNL1        0.0624
     35 C         138.5451  141.4215  159.8705 C.ar    1  UNL1        0.1760
     36 F         138.9129  142.1886  158.6349 F       1  UNL1       -0.2009
@<TRIPOS>BOND
     1    12    13    1
     2    13    11    1
     3    11    10    1
     4    10     1    1
     5     1     2    1
     6     2     3    1
     7     3     4    1
     8     4     5    1
     9     5    25    1
    10    25    26    1
    11    26    27    1
    12    27    28    1
    13    28    29    1
    14    29    30   ar
    15    30    31   ar
    16    31    32   ar
    17    32    33    1
    18    32    34   ar
    19    34    35   ar
    20    35    36    1
    21     5     6    1
    22     6     7    1
    23     7     8    1
    24     7     9    1
    25    13    14    1
    26    14    15    2
    27    14    16    2
    28    14    17    1
    29    17    18   ar
    30    18    19   ar
    31    19    20   ar
    32    20    23    1
    33    23    24    3
    34    20    21   ar
    35    21    22   ar
    36     8     1    1
    37    22    17   ar
    38     9     3    1
    39    35    29   ar
@<TRIPOS>MOLECULE
*****
 36 39 0 0 0
SMALL
GASTEIGER

@<TRIPOS>ATOM
      1 N         139.5901  137.6323  164.2508 N.3     1  UNL1       -0.2673
      2 C         138.8359  137.9707  162.9992 C.3     1  UNL1        0.1035
      3 C         139.5768  138.1932  161.7141 C.3     1  UNL1        0.1470
      4 C         140.3177  138.4157  160.4289 C.3     1  UNL1        0.1035
      5 N         141.8129  138.2998  160.3954 N.3     1  UNL1       -0.2684
      6 C         142.5671  137.9614  161.6471 C.3     1  UNL1        0.1035
      7 C         141.8262  137.7389  162.9322 C.3     1  UNL1        0.1470
      8 C         141.0853  137.5164  164.2173 C.3     1  UNL1        0.1035
      9 O         141.0720  138.0773  161.6806 O.3     1  UNL1       -0.3530
     10 C         138.8492  137.4098  165.5360 C.3     1  UNL1        0.0916
     11 C         138.1782  138.5614  166.2239 C.3     1  UNL1        0.1131
     12 C         139.6957  139.7841  167.9421 C.3     1  UNL1        0.1149
     13 N         138.9785  139.7651  166.6249 N.3     1  UNL1       -0.1526
     14 S         139.0616  140.9498  165.7085 S.O2    1  UNL1        0.0634
     15 O         140.3421  141.3696  166.3674 O.2     1  UNL1       -0.1528
     16 O         137.7811  140.5299  165.0497 O.2     1  UNL1       -0.1528
     17 C         139.1447  142.1344  164.7922 C.ar    1  UNL1        0.1222
     18 C         139.8543  143.3787  165.2374 C.ar    1  UNL1        0.0206
     19 C         139.9374  144.5633  164.3210 C.ar    1  UNL1        0.0116
     20 C         139.3108  144.5037  162.9595 C.ar    1  UNL1        0.0685
     21 C         138.6012  143.2594  162.5142 C.ar    1  UNL1        0.0116
     22 C         138.5181  142.0748  163.4306 C.ar    1  UNL1        0.0206
     23 C         139.3939  145.6884  162.0431 C.1     1  UNL1        0.1004
     24 N         139.4770  146.8730  161.1268 N.1     1  UNL1       -0.1908
     25 C         142.5538  138.5223  159.1103 C.3     1  UNL1        0.0761
     26 C         143.4902  139.6864  158.9764 C.3     1  UNL1        0.0646
     27 C         142.9703  141.0192  158.5256 C.3     1  UNL1        0.2070
     28 O         142.4509  142.0014  159.5333 O.3     1  UNL1       -0.4731
     29 C         142.9397  141.9512  160.9506 C.ar    1  UNL1        0.1659
     30 C         142.0062  141.5445  162.0520 C.ar    1  UNL1        0.0415
     31 C         142.4950  141.4943  163.4692 C.ar    1  UNL1        0.0329
     32 C         143.9173  141.8508  163.7850 C.ar    1  UNL1        0.1426
     33 F         144.4061  141.8006  165.2023 F       1  UNL1       -0.2041
     34 C         144.8509  142.2575  162.6837 C.ar    1  UNL1        0.0624
     35 C         144.3621  142.3077  161.2665 C.ar    1  UNL1        0.1760
     36 F         145.2956  142.7145  160.1650 F       1  UNL1       -0.2009
@<TRIPOS>BOND
     1    12    13    1
     2    13    11    1
     3    11    10    1
     4    10     1    1
     5     1     2    1
     6     2     3    1
     7     3     4    1
     8     4     5    1
     9     5    25    1
    10    25    26    1
    11    26    27    1
    12    27    28    1
    13    28    29    1
    14    29    30   ar
    15    30    31   ar
    16    31    32   ar
    17    32    33    1
    18    32    34   ar
    19    34    35   ar
    20    35    36    1
    21     5     6    1
    22     6     7    1
    23     7     8    1
    24     7     9    1
    25    13    14    1
    26    14    15    2
    27    14    16    2
    28    14    17    1
    29    17    18   ar
    30    18    19   ar
    31    19    20   ar
    32    20    23    1
    33    23    24    3
    34    20    21   ar
    35    21    22   ar
    36     8     1    1
    37    22    17   ar
    38     9     3    1
    39    35    29   ar
@<TRIPOS>MOLECULE
*****
 36 39 0 0 0
SMALL
GASTEIGER

@<TRIPOS>ATOM
      1 N         138.9069  139.1930  161.9408 N.3     1  UNL1       -0.2673
      2 C         140.2754  139.3395  161.3444 C.3     1  UNL1        0.1035
      3 C         140.5786  140.4955  160.4379 C.3     1  UNL1        0.1470
      4 C         140.8819  141.6515  159.5314 C.3     1  UNL1        0.1035
      5 N         139.8166  142.6610  159.2213 N.3     1  UNL1       -0.2684
      6 C         138.4480  142.5144  159.8177 C.3     1  UNL1        0.1035
      7 C         138.1448  141.3585  160.7242 C.3     1  UNL1        0.1470
      8 C         137.8417  140.2025  161.6307 C.3     1  UNL1        0.1035
      9 O         139.5133  141.5049  160.1278 O.3     1  UNL1       -0.3530
     10 C         138.6037  138.0370  162.8474 C.3     1  UNL1        0.0916
     11 C         138.9094  138.1328  164.3127 C.3     1  UNL1        0.1131
     12 C         141.2748  137.0619  164.2203 C.3     1  UNL1        0.1149
     13 N         140.3316  138.0812  164.7871 N.3     1  UNL1       -0.1526
     14 S         140.8104  139.0491  165.8283 S.O2    1  UNL1        0.0634
     15 O         142.2281  138.8049  165.4033 O.2     1  UNL1       -0.1528
     16 O         139.3928  139.2933  166.2533 O.2     1  UNL1       -0.1528
     17 C         141.2893  140.0169  166.8694 C.ar    1  UNL1        0.1222
     18 C         142.4077  140.9654  166.5539 C.ar    1  UNL1        0.0206
     19 C         142.8865  141.9332  167.5951 C.ar    1  UNL1        0.0116
     20 C         142.2469  141.9526  168.9517 C.ar    1  UNL1        0.0685
     21 C         141.1284  141.0041  169.2673 C.ar    1  UNL1        0.0116
     22 C         140.6496  140.0363  168.2261 C.ar    1  UNL1        0.0206
     23 C         142.7257  142.9204  169.9929 C.1     1  UNL1        0.1004
     24 N         143.2046  143.8883  171.0340 N.1     1  UNL1       -0.1908
     25 C         140.1198  143.8169  158.3148 C.3     1  UNL1        0.0761
     26 C         140.3030  145.1912  158.8875 C.3     1  UNL1        0.0646
     27 C         140.6242  145.3605  160.3428 C.3     1  UNL1        0.2070
     28 O         139.5223  145.6059  161.3304 O.3     1  UNL1       -0.4731
     29 C         139.5050  144.8648  162.6345 C.ar    1  UNL1        0.1659
     30 C         138.2448  144.1993  163.1023 C.ar    1  UNL1        0.0415
     31 C         138.2277  143.4582  164.4063 C.ar    1  UNL1        0.0329
     32 C         139.4707  143.3826  165.2425 C.ar    1  UNL1        0.1426
     33 F         139.4535  142.6415  166.5465 F       1  UNL1       -0.2041
     34 C         140.7309  144.0481  164.7746 C.ar    1  UNL1        0.0624
     35 C         140.7481  144.7892  163.4706 C.ar    1  UNL1        0.1760
     36 F         142.0083  145.4548  163.0027 F       1  UNL1       -0.2009
@<TRIPOS>BOND
     1    12    13    1
     2    13    11    1
     3    11    10    1
     4    10     1    1
     5     1     2    1
     6     2     3    1
     7     3     4    1
     8     4     5    1
     9     5    25    1
    10    25    26    1
    11    26    27    1
    12    27    28    1
    13    28    29    1
    14    29    30   ar
    15    30    31   ar
    16    31    32   ar
    17    32    33    1
    18    32    34   ar
    19    34    35   ar
    20    35    36    1
    21     5     6    1
    22     6     7    1
    23     7     8    1
    24     7     9    1
    25    13    14    1
    26    14    15    2
    27    14    16    2
    28    14    17    1
    29    17    18   ar
    30    18    19   ar
    31    19    20   ar
    32    20    23    1
    33    23    24    3
    34    20    21   ar
    35    21    22   ar
    36     8     1    1
    37    22    17   ar
    38     9     3    1
    39    35    29   ar
@<TRIPOS>MOLECULE
*****
 36 39 0 0 0
SMALL
GASTEIGER

@<TRIPOS>ATOM
      1 N         140.9839  141.5187  158.6782 N.3     1  UNL1       -0.2673
      2 C         139.7078  140.9065  159.1752 C.3     1  UNL1        0.1035
      3 C         138.8937  141.6129  160.2183 C.3     1  UNL1        0.1470
      4 C         138.0795  142.3192  161.2616 C.3     1  UNL1        0.1035
      5 N         138.5415  143.6377  161.8078 N.3     1  UNL1       -0.2684
      6 C         139.8175  144.2498  161.3107 C.3     1  UNL1        0.1035
      7 C         140.6317  143.5434  160.2676 C.3     1  UNL1        0.1470
      8 C         141.4458  142.8371  159.2244 C.3     1  UNL1        0.1035
      9 O         139.3556  142.9313  160.7645 O.3     1  UNL1       -0.3530
     10 C         141.7981  140.8123  157.6349 C.3     1  UNL1        0.0916
     11 C         142.9936  140.0014  158.0386 C.3     1  UNL1        0.1131
     12 C         142.5353  137.4441  158.0292 C.3     1  UNL1        0.1149
     13 N         142.8089  138.7120  158.7825 N.3     1  UNL1       -0.1526
     14 S         142.8977  138.6905  160.2797 S.O2    1  UNL1        0.0634
     15 O         144.3269  139.1393  160.2014 O.2     1  UNL1       -0.1528
     16 O         141.4686  138.2418  160.3581 O.2     1  UNL1       -0.1528
     17 C         142.9866  138.6691  161.7769 C.ar    1  UNL1        0.1222
     18 C         144.1898  139.2422  162.4651 C.ar    1  UNL1        0.0206
     19 C         144.2787  139.2208  163.9624 C.ar    1  UNL1        0.0116
     20 C         143.1643  138.6262  164.7714 C.ar    1  UNL1        0.0685
     21 C         141.9610  138.0530  164.0832 C.ar    1  UNL1        0.0116
     22 C         141.8721  138.0745  162.5860 C.ar    1  UNL1        0.0206
     23 C         143.2531  138.6047  166.2686 C.1     1  UNL1        0.1004
     24 N         143.3420  138.5833  167.7658 N.1     1  UNL1       -0.1908
     25 C         137.7273  144.3440  162.8509 C.3     1  UNL1        0.0761
     26 C         137.9288  144.0248  164.3027 C.3     1  UNL1        0.0646
     27 C         139.0528  144.6647  165.0623 C.3     1  UNL1        0.2070
     28 O         140.2732  143.8653  165.4109 O.3     1  UNL1       -0.4731
     29 C         141.4071  143.7630  164.4342 C.ar    1  UNL1        0.1659
     30 C         142.2170  144.9792  164.0953 C.ar    1  UNL1        0.0415
     31 C         143.3508  144.8770  163.1186 C.ar    1  UNL1        0.0329
     32 C         143.6747  143.5585  162.4808 C.ar    1  UNL1        0.1426
     33 F         144.8086  143.4563  161.5041 F       1  UNL1       -0.2041
     34 C         142.8648  142.3423  162.8197 C.ar    1  UNL1        0.0624
     35 C         141.7310  142.4446  163.7964 C.ar    1  UNL1        0.1760
     36 F         140.9211  141.2284  164.1354 F       1  UNL1       -0.2009
@<TRIPOS>BOND
     1    12    13    1
     2    13    11    1
     3    11    10    1
     4    10     1    1
     5     1     2    1
     6     2     3    1
     7     3     4    1
     8     4     5    1
     9     5    25    1
    10    25    26    1
    11    26    27    1
    12    27    28    1
    13    28    29    1
    14    29    30   ar
    15    30    31   ar
    16    31    32   ar
    17    32    33    1
    18    32    34   ar
    19    34    35   ar
    20    35    36    1
    21     5     6    1
    22     6     7    1
    23     7     8    1
    24     7     9    1
    25    13    14    1
    26    14    15    2
    27    14    16    2
    28    14    17    1
    29    17    18   ar
    30    18    19   ar
    31    19    20   ar
    32    20    23    1
    33    23    24    3
    34    20    21   ar
    35    21    22   ar
    36     8     1    1
    37    22    17   ar
    38     9     3    1
    39    35    29   ar
