@<TRIPOS>MOLECULE
*****
 26 29 0 0 0
SMALL
GASTEIGER

@<TRIPOS>ATOM
      1 C         144.0677  137.4649  161.0939 C.3     1  UNL1        0.0311
      2 C         143.1830  138.6449  161.3678 C.ar    1  UNL1       -0.0203
      3 C         142.5431  139.3827  160.2294 C.ar    1  UNL1       -0.0029
      4 C         141.6584  140.5627  160.5032 C.ar    1  UNL1        0.0158
      5 C         141.4137  141.0048  161.9155 C.ar    1  UNL1        0.0662
      6 C         142.0536  140.2670  163.0539 C.ar    1  UNL1        0.0943
      7 C         142.9383  139.0870  162.7800 C.ar    1  UNL1        0.0161
      8 N         141.9429  140.5392  164.5248 N.2     1  UNL1       -0.2444
      9 C         141.1647  141.6164  165.2207 C.2     1  UNL1        0.0783
     10 C         140.3053  142.6875  164.6173 C.ar    1  UNL1        0.0330
     11 C         139.7028  143.5663  165.6732 C.ar    1  UNL1        0.0324
     12 C         138.8068  144.7035  165.2810 C.ar    1  UNL1        0.1403
     13 F         138.2044  145.5823  166.3368 F       1  UNL1       -0.2042
     14 C         138.5131  144.9619  163.8329 C.ar    1  UNL1        0.0309
     15 C         139.1155  144.0832  162.7770 C.ar    1  UNL1        0.0170
     16 C         140.0116  142.9459  163.1692 C.ar    1  UNL1        0.0499
     17 N         140.5049  142.1970  161.9668 N.pl3   1  UNL1       -0.3113
     18 H         140.1906  142.5324  161.0961 H       1  UNL1        0.1523
     19 C         141.2586  141.6235  166.7177 C.2     1  UNL1       -0.0061
     20 C         140.1478  141.0426  167.5416 C.2     1  UNL1       -0.0132
     21 C         140.2418  141.0496  169.0386 C.3     1  UNL1        0.0796
     22 C         139.1310  140.4687  169.8624 C.3     1  UNL1        0.0222
     23 N         141.4464  141.6376  169.7118 N.3     1  UNL1       -0.2688
     24 C         141.5402  141.6446  171.2088 C.3     1  UNL1        0.0899
     25 C         142.5571  142.2185  168.8879 C.3     1  UNL1        0.0771
     26 C         142.4632  142.2114  167.3908 C.3     1  UNL1        0.0449
@<TRIPOS>BOND
     1     1     2    1
     2     2     3   ar
     3     3     4   ar
     4     4     5   ar
     5     5     6   ar
     6     6     7   ar
     7     6     8    1
     8     8     9    2
     9     9    19    1
    10    19    20    2
    11    20    21    1
    12    21    22    1
    13    21    23    1
    14    23    24    1
    15    23    25    1
    16    25    26    1
    17     9    10    1
    18    10    11   ar
    19    11    12   ar
    20    12    13    1
    21    12    14   ar
    22    14    15   ar
    23    15    16   ar
    24    16    17    1
    25     7     2   ar
    26    26    19    1
    27    16    10   ar
    28    17     5    1
    29    17    18    1
@<TRIPOS>MOLECULE
*****
 26 29 0 0 0
SMALL
GASTEIGER

@<TRIPOS>ATOM
      1 C         139.6098  146.3452  161.4740 C.3     1  UNL1        0.0311
      2 C         140.5029  145.2135  161.8883 C.ar    1  UNL1       -0.0203
      3 C         141.7483  144.9162  161.1069 C.ar    1  UNL1       -0.0029
      4 C         142.6414  143.7845  161.5212 C.ar    1  UNL1        0.0158
      5 C         142.2891  142.9501  162.7169 C.ar    1  UNL1        0.0662
      6 C         141.0438  143.2475  163.4983 C.ar    1  UNL1        0.0943
      7 C         140.1507  144.3792  163.0840 C.ar    1  UNL1        0.0161
      8 N         140.5114  142.5454  164.7122 N.2     1  UNL1       -0.2444
      9 C         141.0929  141.3725  165.4446 C.2     1  UNL1        0.0783
     10 C         142.3504  140.6122  165.1439 C.ar    1  UNL1        0.0330
     11 C         142.5687  139.5024  166.1292 C.ar    1  UNL1        0.0324
     12 C         143.7736  138.6174  166.0072 C.ar    1  UNL1        0.1403
     13 F         143.9919  137.5076  166.9925 F       1  UNL1       -0.2042
     14 C         144.7601  138.8420  164.8999 C.ar    1  UNL1        0.0309
     15 C         144.5419  139.9517  163.9146 C.ar    1  UNL1        0.0170
     16 C         143.3370  140.8368  164.0365 C.ar    1  UNL1        0.0499
     17 N         143.3097  141.8773  162.9564 N.pl3   1  UNL1       -0.3113
     18 H         144.0610  141.8529  162.3206 H       1  UNL1        0.1523
     19 C         140.3139  140.8973  166.6350 C.2     1  UNL1       -0.0061
     20 C         139.2569  139.8460  166.4688 C.2     1  UNL1       -0.0132
     21 C         138.4780  139.3708  167.6593 C.3     1  UNL1        0.0796
     22 C         137.4210  138.3195  167.4930 C.3     1  UNL1        0.0222
     23 N         138.7559  139.9469  169.0161 N.3     1  UNL1       -0.2688
     24 C         137.9768  139.4716  170.2066 C.3     1  UNL1        0.0899
     25 C         139.8127  140.9982  169.1824 C.3     1  UNL1        0.0771
     26 C         140.5918  141.4734  167.9918 C.3     1  UNL1        0.0449
@<TRIPOS>BOND
     1     1     2    1
     2     2     3   ar
     3     3     4   ar
     4     4     5   ar
     5     5     6   ar
     6     6     7   ar
     7     6     8    1
     8     8     9    2
     9     9    19    1
    10    19    20    2
    11    20    21    1
    12    21    22    1
    13    21    23    1
    14    23    24    1
    15    23    25    1
    16    25    26    1
    17     9    10    1
    18    10    11   ar
    19    11    12   ar
    20    12    13    1
    21    12    14   ar
    22    14    15   ar
    23    15    16   ar
    24    16    17    1
    25     7     2   ar
    26    26    19    1
    27    16    10   ar
    28    17     5    1
    29    17    18    1
@<TRIPOS>MOLECULE
*****
 26 29 0 0 0
SMALL
GASTEIGER

@<TRIPOS>ATOM
      1 C         140.6650  143.6897  170.2067 C.3     1  UNL1        0.0311
      2 C         140.3520  142.6345  169.1876 C.ar    1  UNL1       -0.0203
      3 C         139.8755  141.2827  169.6297 C.ar    1  UNL1       -0.0029
      4 C         139.5625  140.2275  168.6106 C.ar    1  UNL1        0.0158
      5 C         139.7260  140.5241  167.1493 C.ar    1  UNL1        0.0662
      6 C         140.2026  141.8759  166.7073 C.ar    1  UNL1        0.0943
      7 C         140.5156  142.9311  167.7264 C.ar    1  UNL1        0.0161
      8 N         140.4323  142.3764  165.3120 N.2     1  UNL1       -0.2444
      9 C         140.2421  141.6487  164.0141 C.2     1  UNL1        0.0783
     10 C         139.7753  140.2407  163.7912 C.ar    1  UNL1        0.0330
     11 C         139.7249  139.9050  162.3301 C.ar    1  UNL1        0.0324
     12 C         139.2826  138.5415  161.8887 C.ar    1  UNL1        0.1403
     13 F         139.2321  138.2057  160.4276 F       1  UNL1       -0.2042
     14 C         138.8906  137.5135  162.9083 C.ar    1  UNL1        0.0309
     15 C         138.9410  137.8491  164.3694 C.ar    1  UNL1        0.0170
     16 C         139.3834  139.2128  164.8108 C.ar    1  UNL1        0.0499
     17 N         139.3615  139.3389  166.3054 N.pl3   1  UNL1       -0.3113
     18 H         139.0691  138.5379  166.7975 H       1  UNL1        0.1523
     19 C         140.5609  142.4325  162.7757 C.2     1  UNL1       -0.0061
     20 C         141.8813  142.2459  162.0889 C.2     1  UNL1       -0.0132
     21 C         142.2000  143.0298  160.8505 C.3     1  UNL1        0.0796
     22 C         143.5205  142.8430  160.1638 C.3     1  UNL1        0.0222
     23 N         141.1983  144.0004  160.2987 N.3     1  UNL1       -0.2688
     24 C         141.5172  144.7843  159.0602 C.3     1  UNL1        0.0899
     25 C         139.8779  144.1871  160.9854 C.3     1  UNL1        0.0771
     26 C         139.5592  143.4032  162.2239 C.3     1  UNL1        0.0449
@<TRIPOS>BOND
     1     1     2    1
     2     2     3   ar
     3     3     4   ar
     4     4     5   ar
     5     5     6   ar
     6     6     7   ar
     7     6     8    1
     8     8     9    2
     9     9    19    1
    10    19    20    2
    11    20    21    1
    12    21    22    1
    13    21    23    1
    14    23    24    1
    15    23    25    1
    16    25    26    1
    17     9    10    1
    18    10    11   ar
    19    11    12   ar
    20    12    13    1
    21    12    14   ar
    22    14    15   ar
    23    15    16   ar
    24    16    17    1
    25     7     2   ar
    26    26    19    1
    27    16    10   ar
    28    17     5    1
    29    17    18    1
@<TRIPOS>MOLECULE
*****
 26 29 0 0 0
SMALL
GASTEIGER

@<TRIPOS>ATOM
      1 C         144.1682  142.6513  169.9518 C.3     1  UNL1        0.0311
      2 C         143.3149  141.8319  169.0297 C.ar    1  UNL1       -0.0203
      3 C         142.7568  140.5190  169.4928 C.ar    1  UNL1       -0.0029
      4 C         141.9034  139.6996  168.5707 C.ar    1  UNL1        0.0158
      5 C         141.6081  140.1931  167.1854 C.ar    1  UNL1        0.0662
      6 C         142.1662  141.5061  166.7222 C.ar    1  UNL1        0.0943
      7 C         143.0196  142.3255  167.6444 C.ar    1  UNL1        0.0161
      8 N         141.9957  142.1777  165.3919 N.2     1  UNL1       -0.2444
      9 C         141.2250  141.7022  164.1960 C.2     1  UNL1        0.0783
     10 C         140.4345  140.4376  164.0354 C.ar    1  UNL1        0.0330
     11 C         139.8149  140.3482  162.6722 C.ar    1  UNL1        0.0324
     12 C         138.9802  139.1574  162.3044 C.ar    1  UNL1        0.1403
     13 F         138.3606  139.0679  160.9413 F       1  UNL1       -0.2042
     14 C         138.7651  138.0560  163.2998 C.ar    1  UNL1        0.0309
     15 C         139.3847  138.1454  164.6629 C.ar    1  UNL1        0.0170
     16 C         140.2194  139.3363  165.0307 C.ar    1  UNL1        0.0499
     17 N         140.7417  139.2274  166.4326 N.pl3   1  UNL1       -0.3113
     18 H         140.4815  138.4148  166.9236 H       1  UNL1        0.1523
     19 C         141.2479  142.6115  163.0033 C.2     1  UNL1       -0.0061
     20 C         140.4599  143.8877  163.0178 C.2     1  UNL1       -0.0132
     21 C         140.4829  144.7970  161.8251 C.3     1  UNL1        0.0796
     22 C         139.6949  146.0732  161.8397 C.3     1  UNL1        0.0222
     23 N         141.2938  144.4300  160.6177 N.3     1  UNL1       -0.2688
     24 C         141.3167  145.3393  159.4250 C.3     1  UNL1        0.0899
     25 C         142.0818  143.1538  160.6032 C.3     1  UNL1        0.0771
     26 C         142.0588  142.2445  161.7960 C.3     1  UNL1        0.0449
@<TRIPOS>BOND
     1     1     2    1
     2     2     3   ar
     3     3     4   ar
     4     4     5   ar
     5     5     6   ar
     6     6     7   ar
     7     6     8    1
     8     8     9    2
     9     9    19    1
    10    19    20    2
    11    20    21    1
    12    21    22    1
    13    21    23    1
    14    23    24    1
    15    23    25    1
    16    25    26    1
    17     9    10    1
    18    10    11   ar
    19    11    12   ar
    20    12    13    1
    21    12    14   ar
    22    14    15   ar
    23    15    16   ar
    24    16    17    1
    25     7     2   ar
    26    26    19    1
    27    16    10   ar
    28    17     5    1
    29    17    18    1
@<TRIPOS>MOLECULE
*****
 26 29 0 0 0
SMALL
GASTEIGER

@<TRIPOS>ATOM
      1 C         138.6961  143.8514  156.3415 C.3     1  UNL1        0.0311
      2 C         139.5896  144.0487  157.5300 C.ar    1  UNL1       -0.0203
      3 C         140.6487  145.1106  157.5040 C.ar    1  UNL1       -0.0029
      4 C         141.5422  145.3080  158.6926 C.ar    1  UNL1        0.0158
      5 C         141.3767  144.4435  159.9071 C.ar    1  UNL1        0.0662
      6 C         140.3176  143.3816  159.9331 C.ar    1  UNL1        0.0943
      7 C         139.4241  143.1842  158.7446 C.ar    1  UNL1        0.0161
      8 N         139.9859  142.4184  161.0341 N.2     1  UNL1       -0.2444
      9 C         140.6313  142.2791  162.3810 C.2     1  UNL1        0.0783
     10 C         141.7678  143.0687  162.9595 C.ar    1  UNL1        0.0330
     11 C         142.1078  142.6052  164.3450 C.ar    1  UNL1        0.0324
     12 C         143.2196  143.2656  165.1051 C.ar    1  UNL1        0.1403
     13 F         143.5596  142.8022  166.4906 F       1  UNL1       -0.2042
     14 C         143.9914  144.3895  164.4797 C.ar    1  UNL1        0.0309
     15 C         143.6515  144.8529  163.0942 C.ar    1  UNL1        0.0170
     16 C         142.5397  144.1926  162.3341 C.ar    1  UNL1        0.0499
     17 N         142.3656  144.8044  160.9756 N.pl3   1  UNL1       -0.3113
     18 H         142.9819  145.5402  160.7563 H       1  UNL1        0.1523
     19 C         140.0653  141.2087  163.2663 C.2     1  UNL1       -0.0061
     20 C         140.6850  139.8428  163.2820 C.2     1  UNL1       -0.0132
     21 C         140.1189  138.7725  164.1673 C.3     1  UNL1        0.0796
     22 C         140.7387  137.4066  164.1829 C.3     1  UNL1        0.0222
     23 N         138.9331  139.0680  165.0371 N.3     1  UNL1       -0.2688
     24 C         138.3670  137.9976  165.9225 C.3     1  UNL1        0.0899
     25 C         138.3133  140.4338  165.0215 C.3     1  UNL1        0.0771
     26 C         138.8794  141.5042  164.1360 C.3     1  UNL1        0.0449
@<TRIPOS>BOND
     1     1     2    1
     2     2     3   ar
     3     3     4   ar
     4     4     5   ar
     5     5     6   ar
     6     6     7   ar
     7     6     8    1
     8     8     9    2
     9     9    19    1
    10    19    20    2
    11    20    21    1
    12    21    22    1
    13    21    23    1
    14    23    24    1
    15    23    25    1
    16    25    26    1
    17     9    10    1
    18    10    11   ar
    19    11    12   ar
    20    12    13    1
    21    12    14   ar
    22    14    15   ar
    23    15    16   ar
    24    16    17    1
    25     7     2   ar
    26    26    19    1
    27    16    10   ar
    28    17     5    1
    29    17    18    1
@<TRIPOS>MOLECULE
*****
 26 29 0 0 0
SMALL
GASTEIGER

@<TRIPOS>ATOM
      1 C         139.5430  146.6707  161.6057 C.3     1  UNL1        0.0311
      2 C         140.3743  145.4426  161.8309 C.ar    1  UNL1       -0.0203
      3 C         141.1013  144.8080  160.6826 C.ar    1  UNL1       -0.0029
      4 C         141.9326  143.5799  160.9079 C.ar    1  UNL1        0.0158
      5 C         142.0369  142.9864  162.2815 C.ar    1  UNL1        0.0662
      6 C         141.3098  143.6210  163.4298 C.ar    1  UNL1        0.0943
      7 C         140.4785  144.8491  163.2046 C.ar    1  UNL1        0.0161
      8 N         141.2788  143.1944  164.8676 N.2     1  UNL1       -0.2444
      9 C         141.9672  142.0279  165.5121 C.2     1  UNL1        0.0783
     10 C         142.8566  140.9999  164.8780 C.ar    1  UNL1        0.0330
     11 C         143.3409  139.9985  165.8844 C.ar    1  UNL1        0.0324
     12 C         144.2458  138.8818  165.4556 C.ar    1  UNL1        0.1403
     13 F         144.7301  137.8804  166.4619 F       1  UNL1       -0.2042
     14 C         144.6665  138.7663  164.0205 C.ar    1  UNL1        0.0309
     15 C         144.1823  139.7676  163.0141 C.ar    1  UNL1        0.0170
     16 C         143.2773  140.8844  163.4428 C.ar    1  UNL1        0.0499
     17 N         142.9125  141.7686  162.2873 N.pl3   1  UNL1       -0.3113
     18 H         143.2988  141.5161  161.4176 H       1  UNL1        0.1523
     19 C         141.7355  141.8683  166.9854 C.2     1  UNL1       -0.0061
     20 C         140.5018  141.1728  167.4798 C.2     1  UNL1       -0.0132
     21 C         140.2702  141.0133  168.9532 C.3     1  UNL1        0.0796
     22 C         139.0365  140.3178  169.4474 C.3     1  UNL1        0.0222
     23 N         141.2722  141.5494  169.9323 N.3     1  UNL1       -0.2688
     24 C         141.0405  141.3898  171.4057 C.3     1  UNL1        0.0899
     25 C         142.5059  142.2449  169.4380 C.3     1  UNL1        0.0771
     26 C         142.7375  142.4044  167.9645 C.3     1  UNL1        0.0449
@<TRIPOS>BOND
     1     1     2    1
     2     2     3   ar
     3     3     4   ar
     4     4     5   ar
     5     5     6   ar
     6     6     7   ar
     7     6     8    1
     8     8     9    2
     9     9    19    1
    10    19    20    2
    11    20    21    1
    12    21    22    1
    13    21    23    1
    14    23    24    1
    15    23    25    1
    16    25    26    1
    17     9    10    1
    18    10    11   ar
    19    11    12   ar
    20    12    13    1
    21    12    14   ar
    22    14    15   ar
    23    15    16   ar
    24    16    17    1
    25     7     2   ar
    26    26    19    1
    27    16    10   ar
    28    17     5    1
    29    17    18    1
@<TRIPOS>MOLECULE
*****
 26 29 0 0 0
SMALL
GASTEIGER

@<TRIPOS>ATOM
      1 C         136.9746  137.7123  167.3501 C.3     1  UNL1        0.0311
      2 C         138.1387  138.5847  166.9841 C.ar    1  UNL1       -0.0203
      3 C         138.6522  139.5994  167.9622 C.ar    1  UNL1       -0.0029
      4 C         139.8162  140.4718  167.5961 C.ar    1  UNL1        0.0158
      5 C         140.4667  140.3295  166.2521 C.ar    1  UNL1        0.0662
      6 C         139.9532  139.3147  165.2741 C.ar    1  UNL1        0.0943
      7 C         138.7892  138.4423  165.6401 C.ar    1  UNL1        0.0161
      8 N         140.4521  139.0116  163.8924 N.2     1  UNL1       -0.2444
      9 C         141.5878  139.6483  163.1474 C.2     1  UNL1        0.0783
     10 C         142.5049  140.7454  163.6002 C.ar    1  UNL1        0.0330
     11 C         143.5113  141.0899  162.5425 C.ar    1  UNL1        0.0324
     12 C         144.5257  142.1658  162.7944 C.ar    1  UNL1        0.1403
     13 F         145.5320  142.5103  161.7369 F       1  UNL1       -0.2042
     14 C         144.5338  142.8971  164.1040 C.ar    1  UNL1        0.0309
     15 C         143.5275  142.5527  165.1617 C.ar    1  UNL1        0.0170
     16 C         142.5130  141.4768  164.9098 C.ar    1  UNL1        0.0499
     17 N         141.6059  141.2917  166.0900 N.pl3   1  UNL1       -0.3113
     18 H         141.7815  141.8795  166.8601 H       1  UNL1        0.1523
     19 C         141.8395  139.1177  161.7671 C.2     1  UNL1       -0.0061
     20 C         141.1323  139.7223  160.5906 C.2     1  UNL1       -0.0132
     21 C         141.3840  139.1917  159.2104 C.3     1  UNL1        0.0796
     22 C         140.6768  139.7964  158.0339 C.3     1  UNL1        0.0222
     23 N         142.3430  138.0564  159.0067 N.3     1  UNL1       -0.2688
     24 C         142.5947  137.5258  157.6264 C.3     1  UNL1        0.0899
     25 C         143.0502  137.4518  160.1832 C.3     1  UNL1        0.0771
     26 C         142.7984  137.9824  161.5634 C.3     1  UNL1        0.0449
@<TRIPOS>BOND
     1     1     2    1
     2     2     3   ar
     3     3     4   ar
     4     4     5   ar
     5     5     6   ar
     6     6     7   ar
     7     6     8    1
     8     8     9    2
     9     9    19    1
    10    19    20    2
    11    20    21    1
    12    21    22    1
    13    21    23    1
    14    23    24    1
    15    23    25    1
    16    25    26    1
    17     9    10    1
    18    10    11   ar
    19    11    12   ar
    20    12    13    1
    21    12    14   ar
    22    14    15   ar
    23    15    16   ar
    24    16    17    1
    25     7     2   ar
    26    26    19    1
    27    16    10   ar
    28    17     5    1
    29    17    18    1
@<TRIPOS>MOLECULE
*****
 26 29 0 0 0
SMALL
GASTEIGER

@<TRIPOS>ATOM
      1 C         143.0910  142.9234  170.3069 C.3     1  UNL1        0.0311
      2 C         142.3483  142.0315  169.3567 C.ar    1  UNL1       -0.0203
      3 C         141.3199  141.0717  169.8774 C.ar    1  UNL1       -0.0029
      4 C         140.5772  140.1799  168.9272 C.ar    1  UNL1        0.0158
      5 C         140.8628  140.2479  167.4562 C.ar    1  UNL1        0.0662
      6 C         141.8911  141.2077  166.9355 C.ar    1  UNL1        0.0943
      7 C         142.6339  142.0995  167.8858 C.ar    1  UNL1        0.0161
      8 N         142.3260  141.4342  165.5179 N.2     1  UNL1       -0.2444
      9 C         141.8399  140.7569  164.2709 C.2     1  UNL1        0.0783
     10 C         140.7988  139.6858  164.1336 C.ar    1  UNL1        0.0330
     11 C         140.6125  139.2832  162.7006 C.ar    1  UNL1        0.0324
     12 C         139.6142  138.2223  162.3435 C.ar    1  UNL1        0.1403
     13 F         139.4278  137.8196  160.9106 F       1  UNL1       -0.2042
     14 C         138.8021  137.5639  163.4191 C.ar    1  UNL1        0.0309
     15 C         138.9884  137.9664  164.8520 C.ar    1  UNL1        0.0170
     16 C         139.9868  139.0274  165.2093 C.ar    1  UNL1        0.0499
     17 N         140.0152  139.2776  166.6880 N.pl3   1  UNL1       -0.3113
     18 H         139.3957  138.7329  167.2254 H       1  UNL1        0.1523
     19 C         142.4794  141.2108  162.9923 C.2     1  UNL1       -0.0061
     20 C         141.8892  142.3557  162.2235 C.2     1  UNL1       -0.0132
     21 C         142.5287  142.8095  160.9449 C.3     1  UNL1        0.0796
     22 C         141.9384  143.9544  160.1762 C.3     1  UNL1        0.0222
     23 N         143.7585  142.1184  160.4349 N.3     1  UNL1       -0.2688
     24 C         144.3980  142.5724  159.1562 C.3     1  UNL1        0.0899
     25 C         144.3487  140.9736  161.2036 C.3     1  UNL1        0.0771
     26 C         143.7091  140.5198  162.4823 C.3     1  UNL1        0.0449
@<TRIPOS>BOND
     1     1     2    1
     2     2     3   ar
     3     3     4   ar
     4     4     5   ar
     5     5     6   ar
     6     6     7   ar
     7     6     8    1
     8     8     9    2
     9     9    19    1
    10    19    20    2
    11    20    21    1
    12    21    22    1
    13    21    23    1
    14    23    24    1
    15    23    25    1
    16    25    26    1
    17     9    10    1
    18    10    11   ar
    19    11    12   ar
    20    12    13    1
    21    12    14   ar
    22    14    15   ar
    23    15    16   ar
    24    16    17    1
    25     7     2   ar
    26    26    19    1
    27    16    10   ar
    28    17     5    1
    29    17    18    1
@<TRIPOS>MOLECULE
*****
 26 29 0 0 0
SMALL
GASTEIGER

@<TRIPOS>ATOM
      1 C         142.9148  138.3131  170.1927 C.3     1  UNL1        0.0311
      2 C         142.2479  139.3920  169.3920 C.ar    1  UNL1       -0.0203
      3 C         141.3870  140.4113  170.0774 C.ar    1  UNL1       -0.0029
      4 C         140.7200  141.4901  169.2766 C.ar    1  UNL1        0.0158
      5 C         140.9140  141.5497  167.7904 C.ar    1  UNL1        0.0662
      6 C         141.7749  140.5305  167.1050 C.ar    1  UNL1        0.0943
      7 C         142.4418  139.4516  167.9058 C.ar    1  UNL1        0.0161
      8 N         142.0982  140.4088  165.6453 N.2     1  UNL1       -0.2444
      9 C         141.6404  141.2765  164.5105 C.2     1  UNL1        0.0783
     10 C         140.7462  142.4800  164.5552 C.ar    1  UNL1        0.0330
     11 C         140.5383  143.0592  163.1873 C.ar    1  UNL1        0.0324
     12 C         139.6731  144.2716  163.0098 C.ar    1  UNL1        0.1403
     13 F         139.4651  144.8510  161.6420 F       1  UNL1       -0.2042
     14 C         139.0159  144.9048  164.2003 C.ar    1  UNL1        0.0309
     15 C         139.2239  144.3256  165.5682 C.ar    1  UNL1        0.0170
     16 C         140.0891  143.1131  165.7457 C.ar    1  UNL1        0.0499
     17 N         140.1637  142.6991  167.1855 N.pl3   1  UNL1       -0.3113
     18 H         139.6527  143.2553  167.8170 H       1  UNL1        0.1523
     19 C         142.1432  140.8893  163.1514 C.2     1  UNL1       -0.0061
     20 C         141.3435  139.9535  162.2942 C.2     1  UNL1       -0.0132
     21 C         141.8465  139.5665  160.9352 C.3     1  UNL1        0.0796
     22 C         141.0467  138.6307  160.0780 C.3     1  UNL1        0.0222
     23 N         143.1492  140.1151  160.4332 N.3     1  UNL1       -0.2688
     24 C         143.6520  139.7280  159.0740 C.3     1  UNL1        0.0899
     25 C         143.9489  141.0509  161.2903 C.3     1  UNL1        0.0771
     26 C         143.4459  141.4380  162.6495 C.3     1  UNL1        0.0449
@<TRIPOS>BOND
     1     1     2    1
     2     2     3   ar
     3     3     4   ar
     4     4     5   ar
     5     5     6   ar
     6     6     7   ar
     7     6     8    1
     8     8     9    2
     9     9    19    1
    10    19    20    2
    11    20    21    1
    12    21    22    1
    13    21    23    1
    14    23    24    1
    15    23    25    1
    16    25    26    1
    17     9    10    1
    18    10    11   ar
    19    11    12   ar
    20    12    13    1
    21    12    14   ar
    22    14    15   ar
    23    15    16   ar
    24    16    17    1
    25     7     2   ar
    26    26    19    1
    27    16    10   ar
    28    17     5    1
    29    17    18    1
