@<TRIPOS>MOLECULE
*****
 34 38 0 0 0
SMALL
GASTEIGER

@<TRIPOS>ATOM
      1 N         138.0903  140.0506  165.3702 N.pl3   1  UNL1       -0.2960
      2 H         137.2355  139.7707  165.7704 H       1  UNL1        0.1537
      3 C         139.3445  140.0350  166.1929 C.ar    1  UNL1        0.1367
      4 C         140.5410  139.2629  165.7218 C.ar    1  UNL1        0.0685
      5 C         141.7952  139.2472  166.5446 C.ar    1  UNL1        0.1345
      6 N         141.8527  140.0038  167.8385 N.ar    1  UNL1       -0.1980
      7 N         142.9427  140.1720  168.8551 N.ar    1  UNL1       -0.1602
      8 C         142.4197  141.0482  169.9546 C.ar    1  UNL1        0.1339
      9 C         141.0066  141.4214  169.6175 C.ar    1  UNL1        0.1250
     10 C         140.6561  140.7759  168.3097 C.ar    1  UNL1        0.1776
     11 N         139.4020  140.7915  167.4869 N.ar    1  UNL1       -0.2109
     12 N         142.9918  138.4751  166.0733 N.pl3   1  UNL1       -0.3153
     13 H         143.3452  137.7346  166.6173 H       1  UNL1        0.1483
     14 C         143.6497  138.8312  164.7733 C.3     1  UNL1        0.1301
     15 C         144.9276  139.5129  164.3830 C.3     1  UNL1        0.1642
     16 O         144.5804  139.3348  162.9347 O.3     1  UNL1       -0.3501
     17 C         143.3026  138.6530  163.3249 C.3     1  UNL1        0.1642
     18 C         140.1026  142.2880  170.4433 C.1     1  UNL1        0.1052
     19 N         139.1986  143.1545  171.2691 N.1     1  UNL1       -0.1907
     20 C         138.0884  142.3926  162.1662 C.ar    1  UNL1        0.0476
     21 C         138.0400  141.9506  163.5988 C.ar    1  UNL1        0.0313
     22 C         138.1386  140.4926  163.9376 C.ar    1  UNL1        0.0784
     23 C         138.2856  139.4768  162.8438 C.ar    1  UNL1        0.1532
     24 F         138.3842  138.0188  163.1826 F       1  UNL1       -0.2029
     25 C         138.3340  139.9188  161.4112 C.ar    1  UNL1        0.0279
     26 C         138.2354  141.3766  161.0724 C.ar    1  UNL1       -0.0067
     27 C         140.5489  144.1087  162.1940 C.3     1  UNL1        0.0949
     28 C         139.2200  144.7085  161.8413 C.2     1  UNL1        0.2266
     29 O         139.1215  146.1665  161.5026 O.2     1  UNL1       -0.2748
     30 N         137.9898  143.8505  161.8274 N.am    1  UNL1       -0.2841
     31 H         137.1176  144.2442  161.5960 H       1  UNL1        0.1548
     32 C         138.2837  141.8187  159.6398 C.3     1  UNL1        0.0236
     33 C         137.9357  141.5932  158.1983 C.3     1  UNL1        0.0047
     34 C         138.7155  142.8099  158.6001 C.3     1  UNL1        0.0047
@<TRIPOS>BOND
     1    27    28    1
     2    28    29    2
     3    28    30   am
     4    30    20    1
     5    20    21   ar
     6    21    22   ar
     7    22     1    1
     8     1     3    1
     9     3     4   ar
    10     4     5   ar
    11     5    12    1
    12    12    14    1
    13    14    15    1
    14    15    16    1
    15    16    17    1
    16     5     6   ar
    17     6     7   ar
    18     7     8   ar
    19     8     9   ar
    20     9    18    1
    21    18    19    3
    22     9    10   ar
    23    10    11   ar
    24    22    23   ar
    25    23    24    1
    26    23    25   ar
    27    25    26   ar
    28    26    32    1
    29    32    33    1
    30    33    34    1
    31    26    20   ar
    32    34    32    1
    33    11     3   ar
    34    17    14    1
    35    10     6   ar
    36    30    31    1
    37     1     2    1
    38    12    13    1
@<TRIPOS>MOLECULE
*****
 34 38 0 0 0
SMALL
GASTEIGER

@<TRIPOS>ATOM
      1 N         144.2702  142.1831  163.8771 N.pl3   1  UNL1       -0.2960
      2 H         145.2095  142.0583  163.6098 H       1  UNL1        0.1537
      3 C         143.3461  142.9912  163.0150 C.ar    1  UNL1        0.1367
      4 C         142.3096  143.8722  163.6469 C.ar    1  UNL1        0.0685
      5 C         141.3855  144.6803  162.7848 C.ar    1  UNL1        0.1345
      6 N         141.4980  144.6072  161.2908 N.ar    1  UNL1       -0.1980
      7 N         140.7321  145.2831  160.1924 N.ar    1  UNL1       -0.1602
      8 C         141.2953  144.8198  158.8817 C.ar    1  UNL1        0.1339
      9 C         142.4093  143.8575  159.1700 C.ar    1  UNL1        0.1250
     10 C         142.5346  143.7262  160.6589 C.ar    1  UNL1        0.1776
     11 N         143.4586  142.9181  161.5210 N.ar    1  UNL1       -0.2109
     12 N         140.3489  145.5613  163.4168 N.pl3   1  UNL1       -0.3153
     13 H         140.4741  146.5377  163.4293 H       1  UNL1        0.1483
     14 C         139.1217  144.9547  164.0297 C.3     1  UNL1        0.1301
     15 C         138.5711  144.8518  165.4213 C.3     1  UNL1        0.1642
     16 O         137.3860  144.0967  164.8967 O.3     1  UNL1       -0.3501
     17 C         137.9365  144.1996  163.5051 C.3     1  UNL1        0.1642
     18 C         143.2503  143.1508  158.1486 C.1     1  UNL1        0.1052
     19 N         144.0913  142.4440  157.1273 N.1     1  UNL1       -0.1907
     20 C         143.0838  141.7907  167.6439 C.ar    1  UNL1        0.0476
     21 C         143.5909  142.4087  166.3747 C.ar    1  UNL1        0.0313
     22 C         143.7631  141.5651  165.1463 C.ar    1  UNL1        0.0784
     23 C         143.4282  140.1036  165.1873 C.ar    1  UNL1        0.1532
     24 F         143.6004  139.2600  163.9590 F       1  UNL1       -0.2029
     25 C         142.9211  139.4856  166.4566 C.ar    1  UNL1        0.0279
     26 C         142.7489  140.3291  167.6848 C.ar    1  UNL1       -0.0067
     27 C         140.3846  142.9045  168.3323 C.3     1  UNL1        0.0949
     28 C         141.5620  143.1912  169.2163 C.2     1  UNL1        0.2266
     29 O         141.3897  144.0349  170.4446 O.2     1  UNL1       -0.2748
     30 N         142.9116  142.6344  168.8722 N.am    1  UNL1       -0.2841
     31 H         143.6843  142.8226  169.4525 H       1  UNL1        0.1548
     32 C         142.2418  139.7112  168.9541 C.3     1  UNL1        0.0236
     33 C         141.1725  139.5789  169.9976 C.3     1  UNL1        0.0047
     34 C         142.4328  138.7731  170.1089 C.3     1  UNL1        0.0047
@<TRIPOS>BOND
     1    27    28    1
     2    28    29    2
     3    28    30   am
     4    30    20    1
     5    20    21   ar
     6    21    22   ar
     7    22     1    1
     8     1     3    1
     9     3     4   ar
    10     4     5   ar
    11     5    12    1
    12    12    14    1
    13    14    15    1
    14    15    16    1
    15    16    17    1
    16     5     6   ar
    17     6     7   ar
    18     7     8   ar
    19     8     9   ar
    20     9    18    1
    21    18    19    3
    22     9    10   ar
    23    10    11   ar
    24    22    23   ar
    25    23    24    1
    26    23    25   ar
    27    25    26   ar
    28    26    32    1
    29    32    33    1
    30    33    34    1
    31    26    20   ar
    32    34    32    1
    33    11     3   ar
    34    17    14    1
    35    10     6   ar
    36    30    31    1
    37     1     2    1
    38    12    13    1
@<TRIPOS>MOLECULE
*****
 34 38 0 0 0
SMALL
GASTEIGER

@<TRIPOS>ATOM
      1 N         137.9971  142.3966  160.5944 N.pl3   1  UNL1       -0.2960
      2 H         137.1942  142.2658  160.0399 H       1  UNL1        0.1537
      3 C         139.1196  143.2587  160.0973 C.ar    1  UNL1        0.1367
      4 C         140.1943  143.7090  161.0418 C.ar    1  UNL1        0.0685
      5 C         141.3168  144.5710  160.5448 C.ar    1  UNL1        0.1345
      6 N         141.3645  144.9826  159.1031 N.ar    1  UNL1       -0.1980
      7 N         142.3392  145.8211  158.3305 N.ar    1  UNL1       -0.1602
      8 C         141.8668  145.8889  156.9085 C.ar    1  UNL1        0.1339
      9 C         140.6002  145.0924  156.8022 C.ar    1  UNL1        0.1250
     10 C         140.2898  144.5322  158.1586 C.ar    1  UNL1        0.1776
     11 N         139.1673  143.6702  158.6557 N.ar    1  UNL1       -0.2109
     12 N         142.3915  145.0213  161.4894 N.pl3   1  UNL1       -0.3153
     13 H         142.4624  145.9714  161.7375 H       1  UNL1        0.1483
     14 C         143.3581  144.0241  162.0560 C.3     1  UNL1        0.1301
     15 C         144.1746  142.8995  161.4916 C.3     1  UNL1        0.1642
     16 O         144.7252  142.6137  162.8573 O.3     1  UNL1       -0.3501
     17 C         143.9088  143.7384  163.4217 C.3     1  UNL1        0.1642
     18 C         139.7869  144.8913  155.5580 C.1     1  UNL1        0.1052
     19 N         138.9736  144.6902  154.3138 N.1     1  UNL1       -0.1907
     20 C         138.6943  139.6594  163.3822 C.ar    1  UNL1        0.0476
     21 C         138.5934  140.3220  162.0403 C.ar    1  UNL1        0.0313
     22 C         138.0980  141.7340  161.9363 C.ar    1  UNL1        0.0784
     23 C         137.7035  142.4834  163.1743 C.ar    1  UNL1        0.1532
     24 F         137.2080  143.8954  163.0704 F       1  UNL1       -0.2029
     25 C         137.8044  141.8208  164.5163 C.ar    1  UNL1        0.0279
     26 C         138.2998  140.4089  164.6202 C.ar    1  UNL1       -0.0067
     27 C         141.5971  139.1239  163.9177 C.3     1  UNL1        0.0949
     28 C         140.6412  137.9797  163.7538 C.2     1  UNL1        0.2266
     29 O         141.1367  136.5677  163.8577 O.2     1  UNL1       -0.2748
     30 N         139.1898  138.2474  163.4861 N.am    1  UNL1       -0.2841
     31 H         138.5623  137.4964  163.3786 H       1  UNL1        0.1548
     32 C         138.4007  139.7463  165.9622 C.3     1  UNL1        0.0236
     33 C         139.0663  139.6164  167.3001 C.3     1  UNL1        0.0047
     34 C         137.9097  138.7284  166.9485 C.3     1  UNL1        0.0047
@<TRIPOS>BOND
     1    27    28    1
     2    28    29    2
     3    28    30   am
     4    30    20    1
     5    20    21   ar
     6    21    22   ar
     7    22     1    1
     8     1     3    1
     9     3     4   ar
    10     4     5   ar
    11     5    12    1
    12    12    14    1
    13    14    15    1
    14    15    16    1
    15    16    17    1
    16     5     6   ar
    17     6     7   ar
    18     7     8   ar
    19     8     9   ar
    20     9    18    1
    21    18    19    3
    22     9    10   ar
    23    10    11   ar
    24    22    23   ar
    25    23    24    1
    26    23    25   ar
    27    25    26   ar
    28    26    32    1
    29    32    33    1
    30    33    34    1
    31    26    20   ar
    32    34    32    1
    33    11     3   ar
    34    17    14    1
    35    10     6   ar
    36    30    31    1
    37     1     2    1
    38    12    13    1
@<TRIPOS>MOLECULE
*****
 34 38 0 0 0
SMALL
GASTEIGER

@<TRIPOS>ATOM
      1 N         137.8747  140.3756  164.9743 N.pl3   1  UNL1       -0.2960
      2 H         136.9785  140.2490  165.3618 H       1  UNL1        0.1537
      3 C         139.0943  140.0333  165.7777 C.ar    1  UNL1        0.1367
      4 C         139.0386  140.0650  167.2762 C.ar    1  UNL1        0.0685
      5 C         140.2582  139.7227  168.0796 C.ar    1  UNL1        0.1345
      6 N         141.5337  139.3489  167.3843 N.ar    1  UNL1       -0.1980
      7 N         142.8864  138.9654  167.9067 N.ar    1  UNL1       -0.1602
      8 C         143.7783  138.6968  166.7310 C.ar    1  UNL1        0.1339
      9 C         142.9767  138.9142  165.4819 C.ar    1  UNL1        0.1250
     10 C         141.5894  139.3172  165.8857 C.ar    1  UNL1        0.1776
     11 N         140.3698  139.6595  165.0824 N.ar    1  UNL1       -0.2109
     12 N         140.2024  139.7544  169.5783 N.pl3   1  UNL1       -0.3153
     13 H         139.8849  138.9664  170.0758 H       1  UNL1        0.1483
     14 C         140.6302  140.9867  170.3189 C.3     1  UNL1        0.1301
     15 C         140.0536  142.3567  170.5207 C.3     1  UNL1        0.1642
     16 O         141.2351  142.7295  171.3662 O.3     1  UNL1       -0.3501
     17 C         141.8117  141.3595  171.1644 C.3     1  UNL1        0.1642
     18 C         143.4749  138.7564  164.0759 C.1     1  UNL1        0.1052
     19 N         143.9732  138.5985  162.6699 N.1     1  UNL1       -0.1907
     20 C         138.3196  142.9207  161.9619 C.ar    1  UNL1        0.0476
     21 C         138.1738  142.3857  163.3556 C.ar    1  UNL1        0.0313
     22 C         138.0205  140.9106  163.5806 C.ar    1  UNL1        0.0784
     23 C         138.0131  139.9705  162.4118 C.ar    1  UNL1        0.1532
     24 F         137.8598  138.4954  162.6367 F       1  UNL1       -0.2029
     25 C         138.1590  140.5055  161.0180 C.ar    1  UNL1        0.0279
     26 C         138.3122  141.9806  160.7931 C.ar    1  UNL1       -0.0067
     27 C         141.0311  144.1917  162.1416 C.3     1  UNL1        0.0949
     28 C         139.8286  145.0313  161.8269 C.2     1  UNL1        0.2266
     29 O         139.9820  146.5064  161.6020 O.2     1  UNL1       -0.2748
     30 N         138.4729  144.3959  161.7370 N.am    1  UNL1       -0.2841
     31 H         137.6836  144.9469  161.5304 H       1  UNL1        0.1548
     32 C         138.4580  142.5156  159.3993 C.3     1  UNL1        0.0236
     33 C         137.9603  142.6166  157.9879 C.3     1  UNL1        0.0047
     34 C         139.2084  143.3413  158.3967 C.3     1  UNL1        0.0047
@<TRIPOS>BOND
     1    27    28    1
     2    28    29    2
     3    28    30   am
     4    30    20    1
     5    20    21   ar
     6    21    22   ar
     7    22     1    1
     8     1     3    1
     9     3     4   ar
    10     4     5   ar
    11     5    12    1
    12    12    14    1
    13    14    15    1
    14    15    16    1
    15    16    17    1
    16     5     6   ar
    17     6     7   ar
    18     7     8   ar
    19     8     9   ar
    20     9    18    1
    21    18    19    3
    22     9    10   ar
    23    10    11   ar
    24    22    23   ar
    25    23    24    1
    26    23    25   ar
    27    25    26   ar
    28    26    32    1
    29    32    33    1
    30    33    34    1
    31    26    20   ar
    32    34    32    1
    33    11     3   ar
    34    17    14    1
    35    10     6   ar
    36    30    31    1
    37     1     2    1
    38    12    13    1
@<TRIPOS>MOLECULE
*****
 34 38 0 0 0
SMALL
GASTEIGER

@<TRIPOS>ATOM
      1 N         144.1095  141.9996  164.5981 N.pl3   1  UNL1       -0.2960
      2 H         145.0540  142.0756  164.8653 H       1  UNL1        0.1537
      3 C         143.0910  141.4970  165.5780 C.ar    1  UNL1        0.1367
      4 C         142.1012  140.4502  165.1604 C.ar    1  UNL1        0.0685
      5 C         141.0827  139.9475  166.1402 C.ar    1  UNL1        0.1345
      6 N         141.0540  140.4918  167.5377 N.ar    1  UNL1       -0.1980
      7 N         140.1732  140.1912  168.7140 N.ar    1  UNL1       -0.1602
      8 C         140.6186  141.0522  169.8586 C.ar    1  UNL1        0.1339
      9 C         141.7747  141.8850  169.3897 C.ar    1  UNL1        0.1250
     10 C         142.0439  141.5387  167.9553 C.ar    1  UNL1        0.1776
     11 N         143.0623  142.0412  166.9754 N.ar    1  UNL1       -0.2109
     12 N         140.0929  138.9007  165.7225 N.pl3   1  UNL1       -0.3153
     13 H         139.3163  138.7015  166.2940 H       1  UNL1        0.1483
     14 C         140.2863  138.1572  164.4342 C.3     1  UNL1        0.1301
     15 C         139.6084  138.1598  163.0961 C.3     1  UNL1        0.1642
     16 O         140.5597  137.1058  162.6121 O.3     1  UNL1       -0.3501
     17 C         141.2375  137.1033  163.9502 C.3     1  UNL1        0.1642
     18 C         142.5293  142.8880  170.2111 C.1     1  UNL1        0.1052
     19 N         143.2838  143.8911  171.0325 N.1     1  UNL1       -0.1907
     20 C         142.4731  144.0258  161.6036 C.ar    1  UNL1        0.0476
     21 C         142.8937  143.6390  162.9905 C.ar    1  UNL1        0.0313
     22 C         143.6889  142.3864  163.2113 C.ar    1  UNL1        0.0784
     23 C         144.0633  141.5206  162.0450 C.ar    1  UNL1        0.1532
     24 F         144.8585  140.2679  162.2657 F       1  UNL1       -0.2029
     25 C         143.6427  141.9074  160.6581 C.ar    1  UNL1        0.0279
     26 C         142.8476  143.1599  160.4374 C.ar    1  UNL1       -0.0067
     27 C         139.4752  143.9287  161.6587 C.3     1  UNL1        0.0949
     28 C         140.1790  145.2299  161.4105 C.2     1  UNL1        0.2266
     29 O         139.3838  146.4825  161.1899 O.2     1  UNL1       -0.2748
     30 N         141.6779  145.2785  161.3830 N.am    1  UNL1       -0.2841
     31 H         142.1398  146.1325  161.2201 H       1  UNL1        0.1548
     32 C         142.4270  143.5467  159.0505 C.3     1  UNL1        0.0236
     33 C         141.4117  143.5222  157.9467 C.3     1  UNL1        0.0047
     34 C         142.7137  144.2412  157.7523 C.3     1  UNL1        0.0047
@<TRIPOS>BOND
     1    27    28    1
     2    28    29    2
     3    28    30   am
     4    30    20    1
     5    20    21   ar
     6    21    22   ar
     7    22     1    1
     8     1     3    1
     9     3     4   ar
    10     4     5   ar
    11     5    12    1
    12    12    14    1
    13    14    15    1
    14    15    16    1
    15    16    17    1
    16     5     6   ar
    17     6     7   ar
    18     7     8   ar
    19     8     9   ar
    20     9    18    1
    21    18    19    3
    22     9    10   ar
    23    10    11   ar
    24    22    23   ar
    25    23    24    1
    26    23    25   ar
    27    25    26   ar
    28    26    32    1
    29    32    33    1
    30    33    34    1
    31    26    20   ar
    32    34    32    1
    33    11     3   ar
    34    17    14    1
    35    10     6   ar
    36    30    31    1
    37     1     2    1
    38    12    13    1
@<TRIPOS>MOLECULE
*****
 34 38 0 0 0
SMALL
GASTEIGER

@<TRIPOS>ATOM
      1 N         143.6695  142.0637  163.6350 N.pl3   1  UNL1       -0.2960
      2 H         144.6063  142.2082  163.3690 H       1  UNL1        0.1537
      3 C         142.5573  142.4637  162.7113 C.ar    1  UNL1        0.1367
      4 C         142.6382  143.7571  161.9560 C.ar    1  UNL1        0.0685
      5 C         141.5260  144.1571  161.0323 C.ar    1  UNL1        0.1345
      6 N         140.3330  143.2636  160.8640 N.ar    1  UNL1       -0.1980
      7 N         139.0922  143.3923  160.0310 N.ar    1  UNL1       -0.1602
      8 C         138.2445  142.1784  160.2715 C.ar    1  UNL1        0.1339
      9 C         138.9614  141.2994  161.2531 C.ar    1  UNL1        0.1250
     10 C         140.2521  141.9701  161.6193 C.ar    1  UNL1        0.1776
     11 N         141.3643  141.5702  162.5429 N.ar    1  UNL1       -0.2109
     12 N         141.6069  145.4506  160.2770 N.pl3   1  UNL1       -0.3153
     13 H         141.7562  146.2947  160.7611 H       1  UNL1        0.1483
     14 C         141.4604  145.4578  158.7842 C.3     1  UNL1        0.1301
     15 C         142.2910  144.9693  157.6346 C.3     1  UNL1        0.1642
     16 O         141.2534  145.4680  156.6730 O.3     1  UNL1       -0.3501
     17 C         140.4229  145.9565  157.8226 C.3     1  UNL1        0.1642
     18 C         138.4732  139.9813  161.7766 C.1     1  UNL1        0.1052
     19 N         137.9850  138.6631  162.3001 N.1     1  UNL1       -0.1907
     20 C         142.9988  141.6748  167.5272 C.ar    1  UNL1        0.0476
     21 C         143.3141  142.2949  166.1983 C.ar    1  UNL1        0.0313
     22 C         143.3542  141.4436  164.9639 C.ar    1  UNL1        0.0784
     23 C         143.0790  139.9721  165.0584 C.ar    1  UNL1        0.1532
     24 F         143.1191  139.1207  163.8241 F       1  UNL1       -0.2029
     25 C         142.7637  139.3519  166.3874 C.ar    1  UNL1        0.0279
     26 C         142.7236  140.2032  167.6217 C.ar    1  UNL1       -0.0067
     27 C         140.3858  142.7782  168.5039 C.3     1  UNL1        0.0949
     28 C         141.6522  143.0778  169.2498 C.2     1  UNL1        0.2266
     29 O         141.6120  143.9292  170.4842 O.2     1  UNL1       -0.2748
     30 N         142.9587  142.5261  168.7615 N.am    1  UNL1       -0.2841
     31 H         143.7899  142.7228  169.2511 H       1  UNL1        0.1548
     32 C         142.4084  139.5831  168.9506 C.3     1  UNL1        0.0236
     33 C         141.5241  139.4769  170.1576 C.3     1  UNL1        0.0047
     34 C         142.7466  138.6150  170.0454 C.3     1  UNL1        0.0047
@<TRIPOS>BOND
     1    27    28    1
     2    28    29    2
     3    28    30   am
     4    30    20    1
     5    20    21   ar
     6    21    22   ar
     7    22     1    1
     8     1     3    1
     9     3     4   ar
    10     4     5   ar
    11     5    12    1
    12    12    14    1
    13    14    15    1
    14    15    16    1
    15    16    17    1
    16     5     6   ar
    17     6     7   ar
    18     7     8   ar
    19     8     9   ar
    20     9    18    1
    21    18    19    3
    22     9    10   ar
    23    10    11   ar
    24    22    23   ar
    25    23    24    1
    26    23    25   ar
    27    25    26   ar
    28    26    32    1
    29    32    33    1
    30    33    34    1
    31    26    20   ar
    32    34    32    1
    33    11     3   ar
    34    17    14    1
    35    10     6   ar
    36    30    31    1
    37     1     2    1
    38    12    13    1
@<TRIPOS>MOLECULE
*****
 34 38 0 0 0
SMALL
GASTEIGER

@<TRIPOS>ATOM
      1 N         138.7849  141.7842  165.4679 N.pl3   1  UNL1       -0.2960
      2 H         137.8711  141.8343  165.8308 H       1  UNL1        0.1537
      3 C         139.8498  141.0394  166.2173 C.ar    1  UNL1        0.1367
      4 C         140.7174  140.0480  165.5004 C.ar    1  UNL1        0.0685
      5 C         141.7823  139.3033  166.2497 C.ar    1  UNL1        0.1345
      6 N         141.9793  139.5500  167.7161 N.ar    1  UNL1       -0.1980
      7 N         142.9404  138.9702  168.7112 N.ar    1  UNL1       -0.1602
      8 C         142.6666  139.6033  170.0432 C.ar    1  UNL1        0.1339
      9 C         141.5363  140.5744  169.8713 C.ar    1  UNL1        0.1250
     10 C         141.1116  140.5414  168.4331 C.ar    1  UNL1        0.1776
     11 N         140.0468  141.2861  167.6837 N.ar    1  UNL1       -0.2109
     12 N         142.6500  138.3118  165.5327 N.pl3   1  UNL1       -0.3153
     13 H         142.7290  137.3909  165.8717 H       1  UNL1        0.1483
     14 C         143.3975  138.7235  164.2991 C.3     1  UNL1        0.1301
     15 C         144.6783  139.4565  164.0301 C.3     1  UNL1        0.1642
     16 O         144.4547  139.3058  162.5545 O.3     1  UNL1       -0.3501
     17 C         143.1740  138.5728  162.8235 C.3     1  UNL1        0.1642
     18 C         140.9362  141.4284  170.9486 C.1     1  UNL1        0.1052
     19 N         140.3361  142.2824  172.0258 N.1     1  UNL1       -0.1907
     20 C         140.6698  143.9716  162.7453 C.ar    1  UNL1        0.0476
     21 C         140.3423  143.3032  164.0476 C.ar    1  UNL1        0.0313
     22 C         139.1124  142.4526  164.1657 C.ar    1  UNL1        0.0784
     23 C         138.2101  142.2704  162.9814 C.ar    1  UNL1        0.1532
     24 F         136.9802  141.4198  163.0994 F       1  UNL1       -0.2029
     25 C         138.5376  142.9388  161.6790 C.ar    1  UNL1        0.0279
     26 C         139.7674  143.7894  161.5610 C.ar    1  UNL1       -0.0067
     27 C         143.3664  142.6822  162.4893 C.3     1  UNL1        0.0949
     28 C         143.2480  144.1774  162.4993 C.2     1  UNL1        0.2266
     29 O         144.4779  145.0280  162.3813 O.2     1  UNL1       -0.2748
     30 N         141.8997  144.8222  162.6273 N.am    1  UNL1       -0.2841
     31 H         141.8220  145.8036  162.6339 H       1  UNL1        0.1548
     32 C         140.0949  144.4578  160.2587 C.3     1  UNL1        0.0236
     33 C         140.4022  144.3673  158.7933 C.3     1  UNL1        0.0047
     34 C         140.3550  145.7060  159.4685 C.3     1  UNL1        0.0047
@<TRIPOS>BOND
     1    27    28    1
     2    28    29    2
     3    28    30   am
     4    30    20    1
     5    20    21   ar
     6    21    22   ar
     7    22     1    1
     8     1     3    1
     9     3     4   ar
    10     4     5   ar
    11     5    12    1
    12    12    14    1
    13    14    15    1
    14    15    16    1
    15    16    17    1
    16     5     6   ar
    17     6     7   ar
    18     7     8   ar
    19     8     9   ar
    20     9    18    1
    21    18    19    3
    22     9    10   ar
    23    10    11   ar
    24    22    23   ar
    25    23    24    1
    26    23    25   ar
    27    25    26   ar
    28    26    32    1
    29    32    33    1
    30    33    34    1
    31    26    20   ar
    32    34    32    1
    33    11     3   ar
    34    17    14    1
    35    10     6   ar
    36    30    31    1
    37     1     2    1
    38    12    13    1
@<TRIPOS>MOLECULE
*****
 34 38 0 0 0
SMALL
GASTEIGER

@<TRIPOS>ATOM
      1 N         143.1864  142.6352  165.4402 N.pl3   1  UNL1       -0.2960
      2 H         143.8495  143.0911  166.0073 H       1  UNL1        0.1537
      3 C         142.0496  141.8857  166.0697 C.ar    1  UNL1        0.1367
      4 C         141.1006  141.1032  165.2114 C.ar    1  UNL1        0.0685
      5 C         139.9638  140.3538  165.8409 C.ar    1  UNL1        0.1345
      6 N         139.7763  140.3870  167.3288 N.ar    1  UNL1       -0.1980
      7 N         138.7558  139.7519  168.2261 N.ar    1  UNL1       -0.1602
      8 C         139.0743  140.1420  169.6391 C.ar    1  UNL1        0.1339
      9 C         140.2915  141.0181  169.6149 C.ar    1  UNL1        0.1250
     10 C         140.7254  141.1696  168.1871 C.ar    1  UNL1        0.1776
     11 N         141.8621  141.9190  167.5575 N.ar    1  UNL1       -0.2109
     12 N         139.0147  139.5712  164.9825 N.pl3   1  UNL1       -0.3153
     13 H         138.8734  138.6119  165.1531 H       1  UNL1        0.1483
     14 C         138.2809  140.2501  163.8643 C.3     1  UNL1        0.1301
     15 C         137.9005  139.8742  162.4629 C.3     1  UNL1        0.1642
     16 O         137.2431  141.2103  162.2828 O.3     1  UNL1       -0.3501
     17 C         137.6234  141.5862  163.6842 C.3     1  UNL1        0.1642
     18 C         140.9579  141.6346  170.8090 C.1     1  UNL1        0.1052
     19 N         141.6243  142.2511  172.0031 N.1     1  UNL1       -0.1907
     20 C         142.7303  143.8166  161.6789 C.ar    1  UNL1        0.0476
     21 C         142.6040  143.7618  163.1726 C.ar    1  UNL1        0.0313
     22 C         143.3127  142.6900  163.9465 C.ar    1  UNL1        0.0784
     23 C         144.1478  141.6729  163.2267 C.ar    1  UNL1        0.1532
     24 F         144.8565  140.6010  164.0005 F       1  UNL1       -0.2029
     25 C         144.2741  141.7276  161.7329 C.ar    1  UNL1        0.0279
     26 C         143.5655  142.7994  160.9591 C.ar    1  UNL1       -0.0067
     27 C         139.9050  143.3882  160.7658 C.3     1  UNL1        0.0949
     28 C         140.6090  144.6743  160.4486 C.2     1  UNL1        0.2266
     29 O         139.9001  145.7461  159.6747 O.2     1  UNL1       -0.2748
     30 N         142.0216  144.8885  160.9051 N.am    1  UNL1       -0.2841
     31 H         142.4836  145.7325  160.6969 H       1  UNL1        0.1548
     32 C         143.6918  142.8542  159.4655 C.3     1  UNL1        0.0236
     33 C         143.0635  143.0236  158.1140 C.3     1  UNL1        0.0047
     34 C         144.5389  142.7797  158.2298 C.3     1  UNL1        0.0047
@<TRIPOS>BOND
     1    27    28    1
     2    28    29    2
     3    28    30   am
     4    30    20    1
     5    20    21   ar
     6    21    22   ar
     7    22     1    1
     8     1     3    1
     9     3     4   ar
    10     4     5   ar
    11     5    12    1
    12    12    14    1
    13    14    15    1
    14    15    16    1
    15    16    17    1
    16     5     6   ar
    17     6     7   ar
    18     7     8   ar
    19     8     9   ar
    20     9    18    1
    21    18    19    3
    22     9    10   ar
    23    10    11   ar
    24    22    23   ar
    25    23    24    1
    26    23    25   ar
    27    25    26   ar
    28    26    32    1
    29    32    33    1
    30    33    34    1
    31    26    20   ar
    32    34    32    1
    33    11     3   ar
    34    17    14    1
    35    10     6   ar
    36    30    31    1
    37     1     2    1
    38    12    13    1
@<TRIPOS>MOLECULE
*****
 34 38 0 0 0
SMALL
GASTEIGER

@<TRIPOS>ATOM
      1 N         143.0034  137.9127  162.4486 N.pl3   1  UNL1       -0.2960
      2 H         143.6834  137.2021  162.4059 H       1  UNL1        0.1537
      3 C         142.0532  138.1113  161.3050 C.ar    1  UNL1        0.1367
      4 C         140.6383  138.5326  161.5700 C.ar    1  UNL1        0.0685
      5 C         139.6881  138.7312  160.4263 C.ar    1  UNL1        0.1345
      6 N         140.1530  138.5084  159.0177 N.ar    1  UNL1       -0.1980
      7 N         139.4493  138.6253  157.6982 N.ar    1  UNL1       -0.1602
      8 C         140.4294  138.2761  156.6177 C.ar    1  UNL1        0.1339
      9 C         141.7388  137.9435  157.2694 C.ar    1  UNL1        0.1250
     10 C         141.5680  138.0870  158.7527 C.ar    1  UNL1        0.1776
     11 N         142.5181  137.8884  159.8964 N.ar    1  UNL1       -0.2109
     12 N         138.2731  139.1526  160.6914 N.pl3   1  UNL1       -0.3153
     13 H         137.5297  138.5443  160.4755 H       1  UNL1        0.1483
     14 C         137.9907  140.5007  161.2854 C.3     1  UNL1        0.1301
     15 C         137.4316  140.9895  162.5887 C.3     1  UNL1        0.1642
     16 O         137.5914  142.4072  162.1256 O.3     1  UNL1       -0.3501
     17 C         138.1506  141.9184  160.8224 C.3     1  UNL1        0.1642
     18 C         142.9980  137.5384  156.5620 C.1     1  UNL1        0.1052
     19 N         144.2571  137.1333  155.8546 N.1     1  UNL1       -0.1907
     20 C         143.4823  141.0322  164.8548 C.ar    1  UNL1        0.0476
     21 C         143.5684  140.1481  163.6461 C.ar    1  UNL1        0.0313
     22 C         142.9173  138.7968  163.6573 C.ar    1  UNL1        0.0784
     23 C         142.1800  138.3296  164.8772 C.ar    1  UNL1        0.1532
     24 F         141.5289  136.9784  164.8885 F       1  UNL1       -0.2029
     25 C         142.0939  139.2138  166.0860 C.ar    1  UNL1        0.0279
     26 C         142.7450  140.5650  166.0748 C.ar    1  UNL1       -0.0067
     27 C         141.9081  143.4489  164.0297 C.3     1  UNL1        0.0949
     28 C         143.3464  143.5918  164.4310 C.2     1  UNL1        0.2266
     29 O         143.9974  144.9431  164.4197 O.2     1  UNL1       -0.2748
     30 N         144.1335  142.3834  164.8436 N.am    1  UNL1       -0.2841
     31 H         145.0775  142.4772  165.1070 H       1  UNL1        0.1548
     32 C         142.6589  141.4491  167.2834 C.3     1  UNL1        0.0236
     33 C         143.3327  142.2191  168.3803 C.3     1  UNL1        0.0047
     34 C         141.8361  142.2104  168.2801 C.3     1  UNL1        0.0047
@<TRIPOS>BOND
     1    27    28    1
     2    28    29    2
     3    28    30   am
     4    30    20    1
     5    20    21   ar
     6    21    22   ar
     7    22     1    1
     8     1     3    1
     9     3     4   ar
    10     4     5   ar
    11     5    12    1
    12    12    14    1
    13    14    15    1
    14    15    16    1
    15    16    17    1
    16     5     6   ar
    17     6     7   ar
    18     7     8   ar
    19     8     9   ar
    20     9    18    1
    21    18    19    3
    22     9    10   ar
    23    10    11   ar
    24    22    23   ar
    25    23    24    1
    26    23    25   ar
    27    25    26   ar
    28    26    32    1
    29    32    33    1
    30    33    34    1
    31    26    20   ar
    32    34    32    1
    33    11     3   ar
    34    17    14    1
    35    10     6   ar
    36    30    31    1
    37     1     2    1
    38    12    13    1
