@<TRIPOS>MOLECULE
*****
 37 39 0 0 0
SMALL
GASTEIGER

@<TRIPOS>ATOM
      1 S         142.9855  141.1979  166.9231 S.O2    1  UNL1        0.0455
      2 O         143.3259  142.5372  167.5065 O.2     1  UNL1       -0.1572
      3 O         142.6452  139.8586  166.3397 O.2     1  UNL1       -0.1572
      4 N         143.3936  141.6860  165.5646 N.3     1  UNL1       -0.1592
      5 C         144.1944  140.7988  164.6583 C.3     1  UNL1        0.0979
      6 C         144.6024  141.2869  163.2999 C.3     1  UNL1        0.0487
      7 C         144.2095  142.6622  162.8479 C.3     1  UNL1        0.1186
      8 C         143.4087  143.5494  163.7542 C.3     1  UNL1        0.0487
      9 C         143.0007  143.0612  165.1126 C.3     1  UNL1        0.0979
     10 O         144.6176  143.1503  161.4894 O.3     1  UNL1       -0.3514
     11 C         143.8331  142.7405  160.2784 C.3     1  UNL1        0.1693
     12 C         142.4055  142.3032  160.4221 C.ar    1  UNL1        0.0179
     13 C         142.0643  140.8425  160.4165 C.ar    1  UNL1       -0.0001
     14 C         140.6366  140.4053  160.5603 C.ar    1  UNL1        0.0112
     15 C         139.5502  141.4287  160.7097 C.ar    1  UNL1        0.0585
     16 CL        138.1225  140.9915  160.8534 Cl      1  UNL1       -0.0822
     17 C         139.8914  142.8894  160.7153 C.ar    1  UNL1        0.0225
     18 C         141.3190  143.3266  160.5715 C.ar    1  UNL1        0.0569
     19 CL        141.6603  144.7873  160.5771 Cl      1  UNL1       -0.0825
     20 C         142.5775  140.7099  168.2815 C.3     1  UNL1        0.1895
     21 C         141.8867  141.6384  169.2358 C.3     1  UNL1        0.1104
     22 C         143.0398  141.5180  170.1876 C.3     1  UNL1        0.0243
     23 N         141.1959  142.5669  170.1900 N.am    1  UNL1       -0.1662
     24 O         141.1610  142.2468  171.6551 O.3     1  UNL1       -0.2915
     25 C         140.5400  143.8154  169.6793 C.2     1  UNL1        0.3267
     26 O         139.8492  144.7440  170.6335 O.2     1  UNL1       -0.2627
     27 H         141.6275  141.4115  171.8148 H       1  UNL1        0.2417
     28 C         140.7337  141.7588  168.2839 C.3     1  UNL1        0.0300
     29 C         139.0802  140.1207  169.4383 C.3     1  UNL1        0.0080
     30 C         139.7190  140.6579  168.1919 C.3     1  UNL1        0.0603
     31 C         139.3431  140.0943  166.8537 C.ar    1  UNL1        0.1390
     32 N         138.8707  138.6748  166.7436 N.ar    1  UNL1       -0.2268
     33 C         138.4948  138.1111  165.4053 C.ar    1  UNL1        0.1314
     34 C         138.5913  138.9670  164.1771 C.ar    1  UNL1        0.1783
     35 F         138.2154  138.4033  162.8388 F       1  UNL1       -0.2009
     36 C         139.0636  140.3863  164.2873 C.ar    1  UNL1        0.1314
     37 N         139.4395  140.9500  165.6255 N.ar    1  UNL1       -0.2268
@<TRIPOS>BOND
     1    30    29    1
     2    30    28    1
     3    28    21    1
     4    21    22    1
     5    21    20    1
     6    20     1    1
     7     1     2    2
     8     1     3    2
     9     1     4    1
    10     4     5    1
    11     5     6    1
    12     6     7    1
    13     7    10    1
    14    10    11    1
    15    11    12    1
    16    12    13   ar
    17    13    14   ar
    18    14    15   ar
    19    15    16    1
    20    15    17   ar
    21    17    18   ar
    22    18    19    1
    23     7     8    1
    24     8     9    1
    25    21    23    1
    26    23    24    1
    27    23    25   am
    28    25    26    2
    29    30    31    1
    30    31    32   ar
    31    32    33   ar
    32    33    34   ar
    33    34    35    1
    34    34    36   ar
    35    36    37   ar
    36     9     4    1
    37    37    31   ar
    38    18    12   ar
    39    24    27    1
@<TRIPOS>MOLECULE
*****
 37 39 0 0 0
SMALL
GASTEIGER

@<TRIPOS>ATOM
      1 S         139.6802  138.3434  162.2703 S.O2    1  UNL1        0.0455
      2 O         140.3910  137.2099  162.9486 O.2     1  UNL1       -0.1572
      3 O         138.9695  139.4768  161.5920 O.2     1  UNL1       -0.1572
      4 N         140.5825  138.1973  161.0809 N.3     1  UNL1       -0.1592
      5 C         142.0148  137.7946  161.2710 C.3     1  UNL1        0.0979
      6 C         142.9169  137.6485  160.0816 C.3     1  UNL1        0.0487
      7 C         142.3867  137.9050  158.7020 C.3     1  UNL1        0.1186
      8 C         140.9544  138.3077  158.5119 C.3     1  UNL1        0.0487
      9 C         140.0523  138.4539  159.7014 C.3     1  UNL1        0.0979
     10 O         143.2890  137.7589  157.5126 O.3     1  UNL1       -0.3514
     11 C         142.7800  137.1081  156.2607 C.3     1  UNL1        0.1693
     12 C         142.6439  135.6158  156.1931 C.ar    1  UNL1        0.0179
     13 C         143.5986  134.7406  156.9497 C.ar    1  UNL1       -0.0001
     14 C         143.4624  133.2483  156.8822 C.ar    1  UNL1        0.0112
     15 C         142.3715  132.6313  156.0580 C.ar    1  UNL1        0.0585
     16 CL        142.2353  131.1390  155.9905 Cl      1  UNL1       -0.0822
     17 C         141.4168  133.5065  155.3014 C.ar    1  UNL1        0.0225
     18 C         141.5530  134.9987  155.3690 C.ar    1  UNL1        0.0569
     19 CL        140.5982  135.8740  154.6124 Cl      1  UNL1       -0.0825
     20 C         138.7781  138.4895  163.4597 C.3     1  UNL1        0.1895
     21 C         139.3535  138.8463  164.7982 C.3     1  UNL1        0.1104
     22 C         138.5531  137.7490  165.4349 C.3     1  UNL1        0.0243
     23 N         139.9290  139.2031  166.1367 N.am    1  UNL1       -0.1662
     24 O         141.4126  139.3529  166.2994 O.3     1  UNL1       -0.2915
     25 C         139.0208  139.4102  167.3124 C.2     1  UNL1        0.3267
     26 O         139.5963  139.7671  168.6509 O.2     1  UNL1       -0.2627
     27 H         141.8495  139.1867  165.4495 H       1  UNL1        0.2417
     28 C         140.1539  139.9436  164.1616 C.3     1  UNL1        0.0300
     29 C         138.3158  141.7286  164.5920 C.3     1  UNL1        0.0080
     30 C         139.7555  141.3757  164.3619 C.3     1  UNL1        0.0603
     31 C         140.7967  142.4551  164.3322 C.ar    1  UNL1        0.1390
     32 N         142.1726  142.1848  164.8652 N.ar    1  UNL1       -0.2268
     33 C         143.2138  143.2641  164.8355 C.ar    1  UNL1        0.1314
     34 C         142.8791  144.6138  164.2729 C.ar    1  UNL1        0.1783
     35 F         143.9203  145.6932  164.2432 F       1  UNL1       -0.2009
     36 C         141.5033  144.8841  163.7400 C.ar    1  UNL1        0.1314
     37 N         140.4621  143.8047  163.7697 N.ar    1  UNL1       -0.2268
@<TRIPOS>BOND
     1    30    29    1
     2    30    28    1
     3    28    21    1
     4    21    22    1
     5    21    20    1
     6    20     1    1
     7     1     2    2
     8     1     3    2
     9     1     4    1
    10     4     5    1
    11     5     6    1
    12     6     7    1
    13     7    10    1
    14    10    11    1
    15    11    12    1
    16    12    13   ar
    17    13    14   ar
    18    14    15   ar
    19    15    16    1
    20    15    17   ar
    21    17    18   ar
    22    18    19    1
    23     7     8    1
    24     8     9    1
    25    21    23    1
    26    23    24    1
    27    23    25   am
    28    25    26    2
    29    30    31    1
    30    31    32   ar
    31    32    33   ar
    32    33    34   ar
    33    34    35    1
    34    34    36   ar
    35    36    37   ar
    36     9     4    1
    37    37    31   ar
    38    18    12   ar
    39    24    27    1
@<TRIPOS>MOLECULE
*****
 37 39 0 0 0
SMALL
GASTEIGER

@<TRIPOS>ATOM
      1 S         142.7090  139.9243  165.4949 S.O2    1  UNL1        0.0455
      2 O         142.0873  138.6754  166.0459 O.2     1  UNL1       -0.1572
      3 O         143.3307  141.1732  164.9439 O.2     1  UNL1       -0.1572
      4 N         142.7877  139.2870  164.1393 N.3     1  UNL1       -0.1592
      5 C         143.9713  139.5476  163.2556 C.3     1  UNL1        0.0979
      6 C         144.0500  138.9103  161.9000 C.3     1  UNL1        0.0487
      7 C         142.9450  138.0123  161.4282 C.3     1  UNL1        0.1186
      8 C         141.7613  137.7517  162.3119 C.3     1  UNL1        0.0487
      9 C         141.6827  138.3890  163.6674 C.3     1  UNL1        0.0979
     10 O         143.0237  137.3750  160.0725 O.3     1  UNL1       -0.3514
     11 C         142.4873  138.0969  158.8721 C.3     1  UNL1        0.1693
     12 C         141.9073  139.4722  159.0212 C.ar    1  UNL1        0.0179
     13 C         142.7865  140.6777  158.8669 C.ar    1  UNL1       -0.0001
     14 C         142.2064  142.0530  159.0160 C.ar    1  UNL1        0.0112
     15 C         140.7472  142.2227  159.3193 C.ar    1  UNL1        0.0585
     16 CL        140.1672  143.5980  159.4684 Cl      1  UNL1       -0.0822
     17 C         139.8681  141.0172  159.4735 C.ar    1  UNL1        0.0225
     18 C         140.4481  139.6420  159.3245 C.ar    1  UNL1        0.0569
     19 CL        139.5690  138.4364  159.4787 Cl      1  UNL1       -0.0825
     20 C         142.6303  140.5616  166.8505 C.3     1  UNL1        0.1895
     21 C         141.4965  140.2247  167.7729 C.3     1  UNL1        0.1104
     22 C         142.4491  139.5050  168.6810 C.3     1  UNL1        0.0243
     23 N         140.3626  139.8878  168.6954 N.am    1  UNL1       -0.1662
     24 O         139.0290  139.4947  168.1322 O.3     1  UNL1       -0.2915
     25 C         140.5623  139.9440  170.1809 C.2     1  UNL1        0.3267
     26 O         139.4285  139.6071  171.1034 O.2     1  UNL1       -0.2627
     27 H         139.0704  139.5088  167.1632 H       1  UNL1        0.2417
     28 C         140.5438  140.9444  166.8649 C.3     1  UNL1        0.0300
     29 C         140.5094  143.1116  168.2973 C.3     1  UNL1        0.0080
     30 C         140.3929  142.4334  166.9644 C.3     1  UNL1        0.0603
     31 C         140.1255  143.2443  165.7311 C.ar    1  UNL1        0.1390
     32 N         138.7143  143.4841  165.2826 N.ar    1  UNL1       -0.2268
     33 C         138.4468  144.2950  164.0493 C.ar    1  UNL1        0.1314
     34 C         139.5906  144.8660  163.2646 C.ar    1  UNL1        0.1783
     35 F         139.3232  145.6769  162.0313 F       1  UNL1       -0.2009
     36 C         141.0017  144.6262  163.7132 C.ar    1  UNL1        0.1314
     37 N         141.2691  143.8154  164.9464 N.ar    1  UNL1       -0.2268
@<TRIPOS>BOND
     1    30    29    1
     2    30    28    1
     3    28    21    1
     4    21    22    1
     5    21    20    1
     6    20     1    1
     7     1     2    2
     8     1     3    2
     9     1     4    1
    10     4     5    1
    11     5     6    1
    12     6     7    1
    13     7    10    1
    14    10    11    1
    15    11    12    1
    16    12    13   ar
    17    13    14   ar
    18    14    15   ar
    19    15    16    1
    20    15    17   ar
    21    17    18   ar
    22    18    19    1
    23     7     8    1
    24     8     9    1
    25    21    23    1
    26    23    24    1
    27    23    25   am
    28    25    26    2
    29    30    31    1
    30    31    32   ar
    31    32    33   ar
    32    33    34   ar
    33    34    35    1
    34    34    36   ar
    35    36    37   ar
    36     9     4    1
    37    37    31   ar
    38    18    12   ar
    39    24    27    1
@<TRIPOS>MOLECULE
*****
 37 39 0 0 0
SMALL
GASTEIGER

@<TRIPOS>ATOM
      1 S         142.0355  140.4621  162.4822 S.O2    1  UNL1        0.0455
      2 O         143.0416  139.4773  161.9646 O.2     1  UNL1       -0.1572
      3 O         141.0295  141.4470  162.9998 O.2     1  UNL1       -0.1572
      4 N         142.3507  140.0449  163.8882 N.3     1  UNL1       -0.1592
      5 C         142.3228  138.5930  164.2638 C.3     1  UNL1        0.0979
      6 C         142.6379  138.1759  165.6698 C.3     1  UNL1        0.0487
      7 C         142.9809  139.2108  166.7001 C.3     1  UNL1        0.1186
      8 C         143.0087  140.6627  166.3245 C.3     1  UNL1        0.0487
      9 C         142.6936  141.0798  164.9185 C.3     1  UNL1        0.0979
     10 O         143.2960  138.7936  168.1061 O.3     1  UNL1       -0.3514
     11 C         142.3220  139.0815  169.2099 C.3     1  UNL1        0.1693
     12 C         141.8438  140.4843  169.4413 C.ar    1  UNL1        0.0179
     13 C         142.7562  141.4930  170.0739 C.ar    1  UNL1       -0.0001
     14 C         142.2780  142.8957  170.3053 C.ar    1  UNL1        0.0112
     15 C         140.8874  143.2898  169.9040 C.ar    1  UNL1        0.0585
     16 CL        140.4092  144.6926  170.1354 Cl      1  UNL1       -0.0822
     17 C         139.9751  142.2812  169.2714 C.ar    1  UNL1        0.0225
     18 C         140.4533  140.8784  169.0401 C.ar    1  UNL1        0.0569
     19 CL        139.5409  139.8697  168.4074 Cl      1  UNL1       -0.0825
     20 C         141.7205  140.8792  161.0763 C.3     1  UNL1        0.1895
     21 C         140.3240  140.7381  160.5472 C.3     1  UNL1        0.1104
     22 C         140.0533  139.6561  161.5502 C.3     1  UNL1        0.0243
     23 N         138.9276  140.5969  160.0181 N.am    1  UNL1       -0.1662
     24 O         137.7562  140.7497  160.9426 O.3     1  UNL1       -0.2915
     25 C         138.7024  140.3031  158.5645 C.2     1  UNL1        0.3267
     26 O         137.3059  140.1619  158.0354 O.2     1  UNL1       -0.2627
     27 H         138.0746  140.9358  161.8398 H       1  UNL1        0.2417
     28 C         140.5947  141.8201  159.5442 C.3     1  UNL1        0.0300
     29 C         139.5919  143.9703  158.4854 C.3     1  UNL1        0.0080
     30 C         139.9495  143.1652  159.6995 C.3     1  UNL1        0.0603
     31 C         139.6617  143.7054  161.0690 C.ar    1  UNL1        0.1390
     32 N         140.7357  144.4205  161.8341 N.ar    1  UNL1       -0.2268
     33 C         140.4479  144.9607  163.2035 C.ar    1  UNL1        0.1314
     34 C         139.0862  144.7857  163.8079 C.ar    1  UNL1        0.1783
     35 F         138.7985  145.3258  165.1774 F       1  UNL1       -0.2009
     36 C         138.0124  144.0706  163.0429 C.ar    1  UNL1        0.1314
     37 N         138.3001  143.5304  161.6734 N.ar    1  UNL1       -0.2268
@<TRIPOS>BOND
     1    30    29    1
     2    30    28    1
     3    28    21    1
     4    21    22    1
     5    21    20    1
     6    20     1    1
     7     1     2    2
     8     1     3    2
     9     1     4    1
    10     4     5    1
    11     5     6    1
    12     6     7    1
    13     7    10    1
    14    10    11    1
    15    11    12    1
    16    12    13   ar
    17    13    14   ar
    18    14    15   ar
    19    15    16    1
    20    15    17   ar
    21    17    18   ar
    22    18    19    1
    23     7     8    1
    24     8     9    1
    25    21    23    1
    26    23    24    1
    27    23    25   am
    28    25    26    2
    29    30    31    1
    30    31    32   ar
    31    32    33   ar
    32    33    34   ar
    33    34    35    1
    34    34    36   ar
    35    36    37   ar
    36     9     4    1
    37    37    31   ar
    38    18    12   ar
    39    24    27    1
@<TRIPOS>MOLECULE
*****
 37 39 0 0 0
SMALL
GASTEIGER

@<TRIPOS>ATOM
      1 S         140.0054  138.7157  161.8130 S.O2    1  UNL1        0.0455
      2 O         141.2247  139.4749  162.2451 O.2     1  UNL1       -0.1572
      3 O         138.7861  137.9565  161.3808 O.2     1  UNL1       -0.1572
      4 N         140.6387  138.4589  160.4776 N.3     1  UNL1       -0.1592
      5 C         139.8146  138.5467  159.2274 C.3     1  UNL1        0.0979
      6 C         140.4479  138.2898  157.8922 C.3     1  UNL1        0.0487
      7 C         141.9052  137.9452  157.8071 C.3     1  UNL1        0.1186
      8 C         142.7293  137.8574  159.0574 C.3     1  UNL1        0.0487
      9 C         142.0961  138.1142  160.3926 C.3     1  UNL1        0.0979
     10 O         142.5385  137.6884  156.4718 O.3     1  UNL1       -0.3514
     11 C         143.4181  136.4890  156.2771 C.3     1  UNL1        0.1693
     12 C         142.8247  135.1907  155.8161 C.ar    1  UNL1        0.0179
     13 C         142.1234  135.1147  154.4924 C.ar    1  UNL1       -0.0001
     14 C         141.5301  133.8165  154.0314 C.ar    1  UNL1        0.0112
     15 C         141.6382  132.5942  154.8942 C.ar    1  UNL1        0.0585
     16 CL        141.0448  131.2959  154.4332 Cl      1  UNL1       -0.0822
     17 C         142.3395  132.6702  156.2179 C.ar    1  UNL1        0.0225
     18 C         142.9328  133.9684  156.6789 C.ar    1  UNL1        0.0569
     19 CL        143.6342  134.0445  158.0026 Cl      1  UNL1       -0.0825
     20 C         139.3722  138.9726  163.1482 C.3     1  UNL1        0.1895
     21 C         139.2465  140.3766  163.6611 C.3     1  UNL1        0.1104
     22 C         138.5088  140.7659  162.4145 C.3     1  UNL1        0.0243
     23 N         139.1209  141.7805  164.1740 N.am    1  UNL1       -0.1662
     24 O         140.3462  142.5399  164.5888 O.3     1  UNL1       -0.2915
     25 C         137.7701  142.4251  164.2720 C.2     1  UNL1        0.3267
     26 O         137.6444  143.8291  164.7849 O.2     1  UNL1       -0.2627
     27 H         141.1300  141.9825  164.4632 H       1  UNL1        0.2417
     28 C         139.9842  139.9872  164.9078 C.3     1  UNL1        0.0300
     29 C         138.1446  138.6034  166.1123 C.3     1  UNL1        0.0080
     30 C         139.2227  139.6454  166.1541 C.3     1  UNL1        0.0603
     31 C         139.5394  140.3458  167.4422 C.ar    1  UNL1        0.1390
     32 N         139.1288  139.7342  168.7490 N.ar    1  UNL1       -0.2268
     33 C         139.4454  140.4345  170.0371 C.ar    1  UNL1        0.1314
     34 C         140.1726  141.7464  170.0185 C.ar    1  UNL1        0.1783
     35 F         140.4892  142.4467  171.3067 F       1  UNL1       -0.2009
     36 C         140.5831  142.3578  168.7118 C.ar    1  UNL1        0.1314
     37 N         140.2665  141.6575  167.4237 N.ar    1  UNL1       -0.2268
@<TRIPOS>BOND
     1    30    29    1
     2    30    28    1
     3    28    21    1
     4    21    22    1
     5    21    20    1
     6    20     1    1
     7     1     2    2
     8     1     3    2
     9     1     4    1
    10     4     5    1
    11     5     6    1
    12     6     7    1
    13     7    10    1
    14    10    11    1
    15    11    12    1
    16    12    13   ar
    17    13    14   ar
    18    14    15   ar
    19    15    16    1
    20    15    17   ar
    21    17    18   ar
    22    18    19    1
    23     7     8    1
    24     8     9    1
    25    21    23    1
    26    23    24    1
    27    23    25   am
    28    25    26    2
    29    30    31    1
    30    31    32   ar
    31    32    33   ar
    32    33    34   ar
    33    34    35    1
    34    34    36   ar
    35    36    37   ar
    36     9     4    1
    37    37    31   ar
    38    18    12   ar
    39    24    27    1
@<TRIPOS>MOLECULE
*****
 37 39 0 0 0
SMALL
GASTEIGER

@<TRIPOS>ATOM
      1 S         142.8950  140.8685  167.0856 S.O2    1  UNL1        0.0455
      2 O         143.1838  142.2318  167.6407 O.2     1  UNL1       -0.1572
      3 O         142.6062  139.5053  166.5305 O.2     1  UNL1       -0.1572
      4 N         143.4198  141.3017  165.7488 N.3     1  UNL1       -0.1592
      5 C         143.6532  140.2863  164.6698 C.3     1  UNL1        0.0979
      6 C         144.1780  140.7195  163.3331 C.3     1  UNL1        0.0487
      7 C         144.4693  142.1682  163.0753 C.3     1  UNL1        0.1186
      8 C         144.2359  143.1836  164.1543 C.3     1  UNL1        0.0487
      9 C         143.7111  142.7504  165.4911 C.3     1  UNL1        0.0979
     10 O         144.9941  142.6014  161.7385 O.3     1  UNL1       -0.3514
     11 C         144.0515  142.7838  160.5860 C.3     1  UNL1        0.1693
     12 C         144.2863  142.0462  159.3011 C.ar    1  UNL1        0.0179
     13 C         145.2327  142.6025  158.2791 C.ar    1  UNL1       -0.0001
     14 C         145.4674  141.8649  156.9942 C.ar    1  UNL1        0.0112
     15 C         144.7556  140.5709  156.7315 C.ar    1  UNL1        0.0585
     16 CL        144.9903  139.8332  155.4466 Cl      1  UNL1       -0.0822
     17 C         143.8092  140.0145  157.7536 C.ar    1  UNL1        0.0225
     18 C         143.5745  140.7522  159.0384 C.ar    1  UNL1        0.0569
     19 CL        142.6280  140.1959  160.0606 Cl      1  UNL1       -0.0825
     20 C         142.3703  140.4354  168.4224 C.3     1  UNL1        0.1895
     21 C         141.6664  141.4212  169.3071 C.3     1  UNL1        0.1104
     22 C         142.7199  141.2305  170.3577 C.3     1  UNL1        0.0243
     23 N         140.9626  142.4071  170.1918 N.am    1  UNL1       -0.1662
     24 O         140.7272  142.0829  171.6374 O.3     1  UNL1       -0.2915
     25 C         140.4942  143.7171  169.6311 C.2     1  UNL1        0.3267
     26 O         139.7904  144.7029  170.5158 O.2     1  UNL1       -0.2627
     27 H         141.0891  141.2049  171.8349 H       1  UNL1        0.2417
     28 C         140.6130  141.6120  168.2565 C.3     1  UNL1        0.0300
     29 C         138.8911  139.9240  169.2239 C.3     1  UNL1        0.0080
     30 C         139.5660  140.5591  168.0443 C.3     1  UNL1        0.0603
     31 C         139.1938  140.1411  166.6526 C.ar    1  UNL1        0.1390
     32 N         139.1855  138.6874  166.2831 N.ar    1  UNL1       -0.2268
     33 C         138.8133  138.2694  164.8914 C.ar    1  UNL1        0.1314
     34 C         138.4494  139.3053  163.8692 C.ar    1  UNL1        0.1783
     35 F         138.0772  138.8874  162.4775 F       1  UNL1       -0.2009
     36 C         138.4577  140.7590  164.2388 C.ar    1  UNL1        0.1314
     37 N         138.8299  141.1769  165.6305 N.ar    1  UNL1       -0.2268
@<TRIPOS>BOND
     1    30    29    1
     2    30    28    1
     3    28    21    1
     4    21    22    1
     5    21    20    1
     6    20     1    1
     7     1     2    2
     8     1     3    2
     9     1     4    1
    10     4     5    1
    11     5     6    1
    12     6     7    1
    13     7    10    1
    14    10    11    1
    15    11    12    1
    16    12    13   ar
    17    13    14   ar
    18    14    15   ar
    19    15    16    1
    20    15    17   ar
    21    17    18   ar
    22    18    19    1
    23     7     8    1
    24     8     9    1
    25    21    23    1
    26    23    24    1
    27    23    25   am
    28    25    26    2
    29    30    31    1
    30    31    32   ar
    31    32    33   ar
    32    33    34   ar
    33    34    35    1
    34    34    36   ar
    35    36    37   ar
    36     9     4    1
    37    37    31   ar
    38    18    12   ar
    39    24    27    1
@<TRIPOS>MOLECULE
*****
 37 39 0 0 0
SMALL
GASTEIGER

@<TRIPOS>ATOM
      1 S         140.0265  141.1664  166.9750 S.O2    1  UNL1        0.0455
      2 O         140.1665  142.3371  167.9022 O.2     1  UNL1       -0.1572
      3 O         139.8865  139.9958  166.0477 O.2     1  UNL1       -0.1572
      4 N         139.5254  142.0807  165.8964 N.3     1  UNL1       -0.1592
      5 C         138.8242  141.5132  164.6981 C.3     1  UNL1        0.0979
      6 C         138.3231  142.4274  163.6196 C.3     1  UNL1        0.0487
      7 C         138.5233  143.9091  163.7395 C.3     1  UNL1        0.1186
      8 C         139.2246  144.4766  164.9379 C.3     1  UNL1        0.0487
      9 C         139.7256  143.5624  166.0164 C.3     1  UNL1        0.0979
     10 O         138.0223  144.8234  162.6610 O.3     1  UNL1       -0.3514
     11 C         138.9955  145.5304  161.7650 C.3     1  UNL1        0.1693
     12 C         140.0928  144.7593  161.0929 C.ar    1  UNL1        0.0179
     13 C         139.8238  144.0414  159.8036 C.ar    1  UNL1       -0.0001
     14 C         140.9210  143.2704  159.1316 C.ar    1  UNL1        0.0112
     15 C         142.2872  143.2174  159.7487 C.ar    1  UNL1        0.0585
     16 CL        143.3844  142.4463  159.0766 Cl      1  UNL1       -0.0822
     17 C         142.5561  143.9353  161.0380 C.ar    1  UNL1        0.0225
     18 C         141.4589  144.7063  161.7100 C.ar    1  UNL1        0.0569
     19 CL        141.7278  145.4243  162.9994 Cl      1  UNL1       -0.0825
     20 C         140.5276  140.2523  168.0535 C.3     1  UNL1        0.1895
     21 C         141.7469  140.6231  168.8444 C.3     1  UNL1        0.1104
     22 C         141.0879  140.1222  170.0953 C.3     1  UNL1        0.0243
     23 N         142.9663  140.9940  169.6353 N.am    1  UNL1       -0.1662
     24 O         143.5196  140.0399  170.6521 O.3     1  UNL1       -0.2915
     25 C         143.6325  142.3188  169.4095 C.2     1  UNL1        0.3267
     26 O         144.8519  142.6897  170.2005 O.2     1  UNL1       -0.2627
     27 H         142.9751  139.2374  170.6724 H       1  UNL1        0.2417
     28 C         142.4060  141.1241  167.5935 C.3     1  UNL1        0.0300
     29 C         143.1968  138.7116  167.0417 C.3     1  UNL1        0.0080
     30 C         143.0979  140.1624  166.6736 C.3     1  UNL1        0.0603
     31 C         143.6909  140.6514  165.3855 C.ar    1  UNL1        0.1390
     32 N         143.9893  142.1102  165.2033 N.ar    1  UNL1       -0.2268
     33 C         144.5823  142.5992  163.9152 C.ar    1  UNL1        0.1314
     34 C         144.8769  141.6295  162.8092 C.ar    1  UNL1        0.1783
     35 F         145.4699  142.1185  161.5211 F       1  UNL1       -0.2009
     36 C         144.5785  140.1708  162.9915 C.ar    1  UNL1        0.1314
     37 N         143.9855  139.6818  164.2796 N.ar    1  UNL1       -0.2268
@<TRIPOS>BOND
     1    30    29    1
     2    30    28    1
     3    28    21    1
     4    21    22    1
     5    21    20    1
     6    20     1    1
     7     1     2    2
     8     1     3    2
     9     1     4    1
    10     4     5    1
    11     5     6    1
    12     6     7    1
    13     7    10    1
    14    10    11    1
    15    11    12    1
    16    12    13   ar
    17    13    14   ar
    18    14    15   ar
    19    15    16    1
    20    15    17   ar
    21    17    18   ar
    22    18    19    1
    23     7     8    1
    24     8     9    1
    25    21    23    1
    26    23    24    1
    27    23    25   am
    28    25    26    2
    29    30    31    1
    30    31    32   ar
    31    32    33   ar
    32    33    34   ar
    33    34    35    1
    34    34    36   ar
    35    36    37   ar
    36     9     4    1
    37    37    31   ar
    38    18    12   ar
    39    24    27    1
@<TRIPOS>MOLECULE
*****
 37 39 0 0 0
SMALL
GASTEIGER

@<TRIPOS>ATOM
      1 S         142.6040  139.6304  166.2529 S.O2    1  UNL1        0.0455
      2 O         143.4560  140.7389  166.7965 O.2     1  UNL1       -0.1572
      3 O         141.7521  138.5219  165.7094 O.2     1  UNL1       -0.1572
      4 N         143.0049  140.0067  164.8573 N.3     1  UNL1       -0.1592
      5 C         141.9831  140.0119  163.7592 C.3     1  UNL1        0.0979
      6 C         142.3840  140.3883  162.3636 C.3     1  UNL1        0.0487
      7 C         143.8066  140.7594  162.0662 C.3     1  UNL1        0.1186
      8 C         144.8283  140.7542  163.1643 C.3     1  UNL1        0.0487
      9 C         144.4275  140.3778  164.5599 C.3     1  UNL1        0.0979
     10 O         144.2074  141.1357  160.6705 O.3     1  UNL1       -0.3514
     11 C         144.0702  142.5560  160.2080 C.3     1  UNL1        0.1693
     12 C         142.9021  143.3821  160.6588 C.ar    1  UNL1        0.0179
     13 C         141.6308  143.3810  159.8627 C.ar    1  UNL1       -0.0001
     14 C         140.4628  144.2071  160.3135 C.ar    1  UNL1        0.0112
     15 C         140.5661  145.0342  161.5606 C.ar    1  UNL1        0.0585
     16 CL        139.3980  145.8603  162.0115 Cl      1  UNL1       -0.0822
     17 C         141.8373  145.0353  162.3568 C.ar    1  UNL1        0.0225
     18 C         143.0053  144.2092  161.9059 C.ar    1  UNL1        0.0569
     19 CL        144.2766  144.2103  162.7021 Cl      1  UNL1       -0.0825
     20 C         142.2033  139.2541  167.6485 C.3     1  UNL1        0.1895
     21 C         141.8381  140.3212  168.6375 C.3     1  UNL1        0.1104
     22 C         142.5616  139.5697  169.7154 C.3     1  UNL1        0.0243
     23 N         141.4730  141.3882  169.6265 N.am    1  UNL1       -0.1662
     24 O         141.6241  142.8347  169.2591 O.3     1  UNL1       -0.2915
     25 C         140.9568  141.0089  170.9828 C.2     1  UNL1        0.3267
     26 O         140.5917  142.0760  171.9717 O.2     1  UNL1       -0.2627
     27 H         141.9669  142.9044  168.3543 H       1  UNL1        0.2417
     28 C         141.1147  141.0726  167.5596 C.3     1  UNL1        0.0300
     29 C         138.9139  139.7860  168.0612 C.3     1  UNL1        0.0080
     30 C         139.7320  140.6562  167.1536 C.3     1  UNL1        0.0603
     31 C         139.1674  141.1100  165.8401 C.ar    1  UNL1        0.1390
     32 N         138.4204  140.1425  164.9705 N.ar    1  UNL1       -0.2268
     33 C         137.8557  140.5963  163.6570 C.ar    1  UNL1        0.1314
     34 C         138.0381  142.0175  163.2131 C.ar    1  UNL1        0.1783
     35 F         137.4734  142.4712  161.8996 F       1  UNL1       -0.2009
     36 C         138.7850  142.9848  164.0827 C.ar    1  UNL1        0.1314
     37 N         139.3497  142.5311  165.3962 N.ar    1  UNL1       -0.2268
@<TRIPOS>BOND
     1    30    29    1
     2    30    28    1
     3    28    21    1
     4    21    22    1
     5    21    20    1
     6    20     1    1
     7     1     2    2
     8     1     3    2
     9     1     4    1
    10     4     5    1
    11     5     6    1
    12     6     7    1
    13     7    10    1
    14    10    11    1
    15    11    12    1
    16    12    13   ar
    17    13    14   ar
    18    14    15   ar
    19    15    16    1
    20    15    17   ar
    21    17    18   ar
    22    18    19    1
    23     7     8    1
    24     8     9    1
    25    21    23    1
    26    23    24    1
    27    23    25   am
    28    25    26    2
    29    30    31    1
    30    31    32   ar
    31    32    33   ar
    32    33    34   ar
    33    34    35    1
    34    34    36   ar
    35    36    37   ar
    36     9     4    1
    37    37    31   ar
    38    18    12   ar
    39    24    27    1
@<TRIPOS>MOLECULE
*****
 37 39 0 0 0
SMALL
GASTEIGER

@<TRIPOS>ATOM
      1 S         141.6727  142.7152  166.2815 S.O2    1  UNL1        0.0455
      2 O         140.2231  143.1007  166.2880 O.2     1  UNL1       -0.1572
      3 O         143.1222  142.3297  166.2751 O.2     1  UNL1       -0.1572
      4 N         141.7964  143.2044  164.8689 N.3     1  UNL1       -0.1592
      5 C         143.1216  143.6830  164.3543 C.3     1  UNL1        0.0979
      6 C         143.2453  144.1722  162.9418 C.3     1  UNL1        0.0487
      7 C         142.0438  144.1828  162.0438 C.3     1  UNL1        0.1186
      8 C         140.7187  143.7042  162.5584 C.3     1  UNL1        0.0487
      9 C         140.5950  143.2150  163.9709 C.3     1  UNL1        0.0979
     10 O         142.1676  144.6720  160.6312 O.3     1  UNL1       -0.3514
     11 C         142.3838  143.6937  159.5149 C.3     1  UNL1        0.1693
     12 C         142.4581  142.2247  159.8089 C.ar    1  UNL1        0.0179
     13 C         141.2271  141.3746  159.6992 C.ar    1  UNL1       -0.0001
     14 C         141.3015  139.9056  159.9933 C.ar    1  UNL1        0.0112
     15 C         142.6068  139.2867  160.3970 C.ar    1  UNL1        0.0585
     16 CL        142.6811  137.8176  160.6910 Cl      1  UNL1       -0.0822
     17 C         143.8378  140.1367  160.5067 C.ar    1  UNL1        0.0225
     18 C         143.7634  141.6057  160.2127 C.ar    1  UNL1        0.0569
     19 CL        144.9944  142.4558  160.3223 Cl      1  UNL1       -0.0825
     20 C         141.5489  142.2260  167.6941 C.3     1  UNL1        0.1895
     21 C         142.1161  140.8915  168.0781 C.3     1  UNL1        0.1104
     22 C         142.6791  141.4917  169.3322 C.3     1  UNL1        0.0243
     23 N         142.6832  139.5570  168.4620 N.am    1  UNL1       -0.1662
     24 O         143.3785  138.7138  167.4345 O.3     1  UNL1       -0.2915
     25 C         142.5552  139.0657  169.8735 C.2     1  UNL1        0.3267
     26 O         143.1223  137.7312  170.2574 O.2     1  UNL1       -0.2627
     27 H         143.3737  139.1748  166.5810 H       1  UNL1        0.2417
     28 C         141.5530  140.2914  166.8239 C.3     1  UNL1        0.0300
     29 C         139.3220  139.7599  168.0448 C.3     1  UNL1        0.0080
     30 C         140.1158  139.8648  166.7762 C.3     1  UNL1        0.0603
     31 C         139.4722  139.5431  165.4601 C.ar    1  UNL1        0.1390
     32 N         139.8183  138.2693  164.7474 N.ar    1  UNL1       -0.2268
     33 C         139.1747  137.9476  163.4312 C.ar    1  UNL1        0.1314
     34 C         138.1850  138.8997  162.8277 C.ar    1  UNL1        0.1783
     35 F         137.5414  138.5780  161.5116 F       1  UNL1       -0.2009
     36 C         137.8390  140.1734  163.5404 C.ar    1  UNL1        0.1314
     37 N         138.4826  140.4951  164.8565 N.ar    1  UNL1       -0.2268
@<TRIPOS>BOND
     1    30    29    1
     2    30    28    1
     3    28    21    1
     4    21    22    1
     5    21    20    1
     6    20     1    1
     7     1     2    2
     8     1     3    2
     9     1     4    1
    10     4     5    1
    11     5     6    1
    12     6     7    1
    13     7    10    1
    14    10    11    1
    15    11    12    1
    16    12    13   ar
    17    13    14   ar
    18    14    15   ar
    19    15    16    1
    20    15    17   ar
    21    17    18   ar
    22    18    19    1
    23     7     8    1
    24     8     9    1
    25    21    23    1
    26    23    24    1
    27    23    25   am
    28    25    26    2
    29    30    31    1
    30    31    32   ar
    31    32    33   ar
    32    33    34   ar
    33    34    35    1
    34    34    36   ar
    35    36    37   ar
    36     9     4    1
    37    37    31   ar
    38    18    12   ar
    39    24    27    1
