@<TRIPOS>MOLECULE
*****
 39 44 0 0 0
SMALL
GASTEIGER

@<TRIPOS>ATOM
      1 C         137.8045  142.9565  163.2580 C.3     1  UNL1        0.0932
      2 C         137.6810  141.7937  164.1975 C.3     1  UNL1        0.0286
      3 C         137.7135  140.3920  163.6645 C.3     1  UNL1        0.0193
      4 C         137.8695  140.1530  162.1918 C.3     1  UNL1        0.0700
      5 C         137.9930  141.3158  161.2523 C.3     1  UNL1        0.0193
      6 C         137.9605  142.7176  161.7854 C.3     1  UNL1        0.0286
      7 C         137.8571  140.9389  162.4370 C.3     1  UNL1        0.1562
      8 O         137.8277  142.2064  162.9190 O.3     1  UNL1       -0.3572
      9 N         137.9020  138.7514  161.6588 N.3     1  UNL1       -0.2926
     10 H         137.3009  138.7357  160.8349 H       1  UNL1        0.1236
     11 C         139.2073  138.1328  161.2542 C.3     1  UNL1        0.1152
     12 C         140.4176  138.2991  162.1245 C.ar    1  UNL1        0.0765
     13 C         140.5795  137.4544  163.3535 C.ar    1  UNL1        0.0193
     14 C         141.7899  137.6207  164.2237 C.ar    1  UNL1        0.0411
     15 C         142.8384  138.6316  163.8651 C.ar    1  UNL1        0.1708
     16 C         142.6765  139.4763  162.6361 C.ar    1  UNL1        0.1682
     17 N         141.4661  139.3100  161.7658 N.ar    1  UNL1       -0.2304
     18 N         143.7250  140.4872  162.2775 N.am    1  UNL1       -0.2639
     19 C         144.9354  140.6535  163.1477 C.2     1  UNL1        0.2718
     20 O         145.9839  141.6644  162.7891 O.2     1  UNL1       -0.2707
     21 C         145.0973  139.8088  164.3767 C.3     1  UNL1        0.2898
     22 O         144.0488  138.7979  164.7354 O.3     1  UNL1       -0.4628
     23 H         143.6188  141.0416  161.4709 H       1  UNL1        0.1565
     24 C         137.7720  144.3581  163.7911 C.3     1  UNL1        0.0320
     25 C         138.9173  144.8759  164.6099 C.3     1  UNL1        0.0335
     26 C         140.8565  142.0069  167.4835 C.ar    1  UNL1        0.2250
     27 C         142.2483  141.5114  167.2241 C.ar    1  UNL1        0.0593
     28 C         142.9938  141.9724  166.0068 C.ar    1  UNL1        0.0254
     29 C         142.3474  142.9287  165.0489 C.ar    1  UNL1        0.0990
     30 N         143.0928  143.3896  163.8316 N.ar    1  UNL1       -0.2392
     31 C         142.4464  144.3460  162.8737 C.ar    1  UNL1        0.1353
     32 C         141.0545  144.8414  163.1331 C.ar    1  UNL1        0.1552
     33 C         140.3091  144.3805  164.3504 C.ar    1  UNL1        0.0326
     34 C         140.9556  143.4241  165.3083 C.ar    1  UNL1        0.1009
     35 N         140.2101  142.9632  166.5257 N.ar    1  UNL1       -0.2104
     36 C         139.4862  140.1826  168.7261 C.3     1  UNL1        0.2542
     37 O         140.1111  141.5459  168.7009 O.3     1  UNL1       -0.4561
     38 O         140.4082  145.7978  162.1752 O.3     1  UNL1       -0.4701
     39 C         140.3472  145.4684  160.7131 C.3     1  UNL1        0.2525
@<TRIPOS>BOND
     1    36    37    1
     2    37    26    1
     3    26    27   ar
     4    27    28   ar
     5    28    29   ar
     6    29    30   ar
     7    30    31   ar
     8    31    32   ar
     9    32    38    1
    10    38    39    1
    11    32    33   ar
    12    33    25    1
    13    25    24    1
    14    24     1    1
    15     1     2    1
    16     2     3    1
    17     3     4    1
    18     4     9    1
    19     9    11    1
    20    11    12    1
    21    12    13   ar
    22    13    14   ar
    23    14    15   ar
    24    15    16   ar
    25    16    17   ar
    26    16    18    1
    27    18    19   am
    28    19    20    2
    29    19    21    1
    30    21    22    1
    31     4     5    1
    32     5     6    1
    33     4     7    1
    34     7     8    1
    35    33    34   ar
    36    34    35   ar
    37    35    26   ar
    38    34    29   ar
    39     6     1    1
    40     8     1    1
    41    17    12   ar
    42    22    15    1
    43     9    10    1
    44    18    23    1
@<TRIPOS>MOLECULE
*****
 39 44 0 0 0
SMALL
GASTEIGER

@<TRIPOS>ATOM
      1 C         141.9648  138.0404  164.1571 C.3     1  UNL1        0.0932
      2 C         142.1534  138.4390  162.7234 C.3     1  UNL1        0.0286
      3 C         143.3422  139.2618  162.3238 C.3     1  UNL1        0.0193
      4 C         144.3425  139.6861  163.3580 C.3     1  UNL1        0.0700
      5 C         144.1539  139.2875  164.7917 C.3     1  UNL1        0.0193
      6 C         142.9650  138.4646  165.1913 C.3     1  UNL1        0.0286
      7 C         143.7069  139.2358  163.6248 C.3     1  UNL1        0.1562
      8 O         142.6319  138.4917  163.9861 O.3     1  UNL1       -0.3572
      9 N         145.5312  140.5090  162.9585 N.3     1  UNL1       -0.2926
     10 H         145.5913  140.4651  161.9412 H       1  UNL1        0.1236
     11 C         145.5998  141.9595  163.3341 C.3     1  UNL1        0.1152
     12 C         144.3857  142.8290  163.1928 C.ar    1  UNL1        0.0765
     13 C         143.6940  143.3558  164.4152 C.ar    1  UNL1        0.0193
     14 C         142.4800  144.2253  164.2739 C.ar    1  UNL1        0.0411
     15 C         141.9575  144.5680  162.9103 C.ar    1  UNL1        0.1708
     16 C         142.6491  144.0413  161.6879 C.ar    1  UNL1        0.1682
     17 N         143.8632  143.1718  161.8292 N.ar    1  UNL1       -0.2304
     18 N         142.1266  144.3840  160.3243 N.am    1  UNL1       -0.2639
     19 C         140.9126  145.2535  160.1830 C.2     1  UNL1        0.2718
     20 O         140.3901  145.5963  158.8193 O.2     1  UNL1       -0.2707
     21 C         140.2209  145.7803  161.4053 C.3     1  UNL1        0.2898
     22 O         140.7434  145.4376  162.7690 O.3     1  UNL1       -0.4628
     23 H         142.5806  144.0383  159.5220 H       1  UNL1        0.1565
     24 C         140.7760  137.2175  164.5566 C.3     1  UNL1        0.0320
     25 C         139.5381  137.8893  165.0727 C.3     1  UNL1        0.0335
     26 C         140.8002  141.2803  167.7483 C.ar    1  UNL1        0.2250
     27 C         140.4972  142.6964  167.3578 C.ar    1  UNL1        0.0593
     28 C         139.7734  142.9823  166.0754 C.ar    1  UNL1        0.0254
     29 C         139.3527  141.8521  165.1836 C.ar    1  UNL1        0.0990
     30 N         138.6289  142.1380  163.9012 N.ar    1  UNL1       -0.2392
     31 C         138.2082  141.0077  163.0094 C.ar    1  UNL1        0.1353
     32 C         138.5113  139.5914  163.3999 C.ar    1  UNL1        0.1552
     33 C         139.2350  139.3055  164.6822 C.ar    1  UNL1        0.0326
     34 C         139.6557  140.4359  165.5741 C.ar    1  UNL1        0.1009
     35 N         140.3795  140.1500  166.8564 N.ar    1  UNL1       -0.2104
     36 C         141.2594  139.7180  169.7727 C.3     1  UNL1        0.2542
     37 O         141.5240  140.9944  169.0306 O.3     1  UNL1       -0.4561
     38 O         138.0905  138.4611  162.5080 O.3     1  UNL1       -0.4701
     39 C         138.8005  138.2277  161.2075 C.3     1  UNL1        0.2525
@<TRIPOS>BOND
     1    36    37    1
     2    37    26    1
     3    26    27   ar
     4    27    28   ar
     5    28    29   ar
     6    29    30   ar
     7    30    31   ar
     8    31    32   ar
     9    32    38    1
    10    38    39    1
    11    32    33   ar
    12    33    25    1
    13    25    24    1
    14    24     1    1
    15     1     2    1
    16     2     3    1
    17     3     4    1
    18     4     9    1
    19     9    11    1
    20    11    12    1
    21    12    13   ar
    22    13    14   ar
    23    14    15   ar
    24    15    16   ar
    25    16    17   ar
    26    16    18    1
    27    18    19   am
    28    19    20    2
    29    19    21    1
    30    21    22    1
    31     4     5    1
    32     5     6    1
    33     4     7    1
    34     7     8    1
    35    33    34   ar
    36    34    35   ar
    37    35    26   ar
    38    34    29   ar
    39     6     1    1
    40     8     1    1
    41    17    12   ar
    42    22    15    1
    43     9    10    1
    44    18    23    1
@<TRIPOS>MOLECULE
*****
 39 44 0 0 0
SMALL
GASTEIGER

@<TRIPOS>ATOM
      1 C         144.4957  139.9071  163.6295 C.3     1  UNL1        0.0932
      2 C         143.7268  139.1901  164.6994 C.3     1  UNL1        0.0286
      3 C         142.5971  138.2764  164.3268 C.3     1  UNL1        0.0193
      4 C         142.2362  138.0796  162.8842 C.3     1  UNL1        0.0700
      5 C         143.0051  138.7966  161.8142 C.3     1  UNL1        0.0193
      6 C         144.1349  139.7103  162.1869 C.3     1  UNL1        0.0286
      7 C         142.8631  138.5904  163.0396 C.3     1  UNL1        0.1562
      8 O         143.8846  139.4166  163.3765 O.3     1  UNL1       -0.3572
      9 N         141.1065  137.1659  162.5116 N.3     1  UNL1       -0.2926
     10 H         140.9193  136.5818  163.3265 H       1  UNL1        0.1236
     11 C         139.7900  137.7393  162.0780 C.3     1  UNL1        0.1152
     12 C         139.2416  138.9577  162.7597 C.ar    1  UNL1        0.0765
     13 C         138.6271  138.8417  164.1232 C.ar    1  UNL1        0.0193
     14 C         138.0787  140.0601  164.8048 C.ar    1  UNL1        0.0411
     15 C         138.1448  141.3946  164.1230 C.ar    1  UNL1        0.1708
     16 C         138.7593  141.5106  162.7596 C.ar    1  UNL1        0.1682
     17 N         139.3077  140.2922  162.0779 N.ar    1  UNL1       -0.2304
     18 N         138.8253  142.8451  162.0779 N.am    1  UNL1       -0.2639
     19 C         138.2769  144.0635  162.7595 C.2     1  UNL1        0.2718
     20 O         138.3430  145.3980  162.0777 O.2     1  UNL1       -0.2707
     21 C         137.6624  143.9475  164.1230 C.3     1  UNL1        0.2898
     22 O         137.5964  142.6130  164.8047 O.3     1  UNL1       -0.4628
     23 H         139.2286  142.9213  161.1830 H       1  UNL1        0.1565
     24 C         145.6254  140.8208  164.0021 C.3     1  UNL1        0.0320
     25 C         145.3451  142.2463  164.3755 C.3     1  UNL1        0.0335
     26 C         142.3166  141.8591  167.6813 C.ar    1  UNL1        0.2250
     27 C         140.9380  142.4233  167.5054 C.ar    1  UNL1        0.0593
     28 C         140.5689  143.1167  166.2275 C.ar    1  UNL1        0.0254
     29 C         141.5784  143.2458  165.1256 C.ar    1  UNL1        0.0990
     30 N         141.2092  143.9391  163.8477 N.ar    1  UNL1       -0.2392
     31 C         142.2187  144.0682  162.7457 C.ar    1  UNL1        0.1353
     32 C         143.5974  143.5039  162.9217 C.ar    1  UNL1        0.1552
     33 C         143.9665  142.8106  164.1996 C.ar    1  UNL1        0.0326
     34 C         142.9570  142.6815  165.3015 C.ar    1  UNL1        0.1009
     35 N         143.3261  141.9882  166.5794 N.ar    1  UNL1       -0.2104
     36 C         142.4975  139.6834  169.0897 C.3     1  UNL1        0.2542
     37 O         142.6858  141.1657  168.9592 O.3     1  UNL1       -0.4561
     38 O         144.6068  143.6330  161.8198 O.3     1  UNL1       -0.4701
     39 C         144.4408  142.8448  160.5544 C.3     1  UNL1        0.2525
@<TRIPOS>BOND
     1    36    37    1
     2    37    26    1
     3    26    27   ar
     4    27    28   ar
     5    28    29   ar
     6    29    30   ar
     7    30    31   ar
     8    31    32   ar
     9    32    38    1
    10    38    39    1
    11    32    33   ar
    12    33    25    1
    13    25    24    1
    14    24     1    1
    15     1     2    1
    16     2     3    1
    17     3     4    1
    18     4     9    1
    19     9    11    1
    20    11    12    1
    21    12    13   ar
    22    13    14   ar
    23    14    15   ar
    24    15    16   ar
    25    16    17   ar
    26    16    18    1
    27    18    19   am
    28    19    20    2
    29    19    21    1
    30    21    22    1
    31     4     5    1
    32     5     6    1
    33     4     7    1
    34     7     8    1
    35    33    34   ar
    36    34    35   ar
    37    35    26   ar
    38    34    29   ar
    39     6     1    1
    40     8     1    1
    41    17    12   ar
    42    22    15    1
    43     9    10    1
    44    18    23    1
@<TRIPOS>MOLECULE
*****
 39 44 0 0 0
SMALL
GASTEIGER

@<TRIPOS>ATOM
      1 C         141.6003  138.5613  164.4847 C.3     1  UNL1        0.0932
      2 C         141.6006  139.0964  163.0834 C.3     1  UNL1        0.0286
      3 C         142.8359  139.7397  162.5265 C.3     1  UNL1        0.0193
      4 C         144.0709  139.8480  163.3710 C.3     1  UNL1        0.0700
      5 C         144.0706  139.3129  164.7723 C.3     1  UNL1        0.0193
      6 C         142.8352  138.6695  165.3292 C.3     1  UNL1        0.0286
      7 C         143.4181  139.4872  163.7197 C.3     1  UNL1        0.1562
      8 O         142.3011  138.9055  164.2233 O.3     1  UNL1       -0.3572
      9 N         145.3062  140.4913  162.8141 N.3     1  UNL1       -0.2926
     10 H         145.3068  140.3082  161.8107 H       1  UNL1        0.1236
     11 C         145.5267  141.9650  162.9854 C.3     1  UNL1        0.1152
     12 C         144.3585  142.9056  162.9640 C.ar    1  UNL1        0.0765
     13 C         143.8859  143.5438  164.2367 C.ar    1  UNL1        0.0193
     14 C         142.7177  144.4844  164.2153 C.ar    1  UNL1        0.0411
     15 C         142.0219  144.7868  162.9213 C.ar    1  UNL1        0.1708
     16 C         142.4944  144.1487  161.6487 C.ar    1  UNL1        0.1682
     17 N         143.6627  143.2081  161.6700 N.ar    1  UNL1       -0.2304
     18 N         141.7987  144.4512  160.3547 N.am    1  UNL1       -0.2639
     19 C         140.6304  145.3918  160.3333 C.2     1  UNL1        0.2718
     20 O         139.9347  145.6943  159.0393 O.2     1  UNL1       -0.2707
     21 C         140.1579  146.0300  161.6059 C.3     1  UNL1        0.2898
     22 O         140.8537  145.7275  162.8999 O.3     1  UNL1       -0.4628
     23 H         142.1088  144.0324  159.5194 H       1  UNL1        0.1565
     24 C         140.3650  137.9180  165.0416 C.3     1  UNL1        0.0320
     25 C         139.4231  138.7157  165.8941 C.3     1  UNL1        0.0335
     26 C         137.7939  141.5260  162.7800 C.ar    1  UNL1        0.2250
     27 C         137.9884  143.0058  162.9299 C.ar    1  UNL1        0.0593
     28 C         138.7259  143.5488  164.1178 C.ar    1  UNL1        0.0254
     29 C         139.2690  142.6120  165.1559 C.ar    1  UNL1        0.0990
     30 N         140.0065  143.1550  166.3438 N.ar    1  UNL1       -0.2392
     31 C         140.5496  142.2183  167.3818 C.ar    1  UNL1        0.1353
     32 C         140.3551  140.7385  167.2320 C.ar    1  UNL1        0.1552
     33 C         139.6176  140.1955  166.0440 C.ar    1  UNL1        0.0326
     34 C         139.0745  141.1323  165.0060 C.ar    1  UNL1        0.1009
     35 N         138.3370  140.5893  163.8180 N.ar    1  UNL1       -0.2104
     36 C         137.6343  139.8427  160.8075 C.3     1  UNL1        0.2542
     37 O         137.0564  140.9831  161.5920 O.3     1  UNL1       -0.4561
     38 O         140.8982  139.8017  168.2700 O.3     1  UNL1       -0.4701
     39 C         142.3304  139.9102  168.7024 C.3     1  UNL1        0.2525
@<TRIPOS>BOND
     1    36    37    1
     2    37    26    1
     3    26    27   ar
     4    27    28   ar
     5    28    29   ar
     6    29    30   ar
     7    30    31   ar
     8    31    32   ar
     9    32    38    1
    10    38    39    1
    11    32    33   ar
    12    33    25    1
    13    25    24    1
    14    24     1    1
    15     1     2    1
    16     2     3    1
    17     3     4    1
    18     4     9    1
    19     9    11    1
    20    11    12    1
    21    12    13   ar
    22    13    14   ar
    23    14    15   ar
    24    15    16   ar
    25    16    17   ar
    26    16    18    1
    27    18    19   am
    28    19    20    2
    29    19    21    1
    30    21    22    1
    31     4     5    1
    32     5     6    1
    33     4     7    1
    34     7     8    1
    35    33    34   ar
    36    34    35   ar
    37    35    26   ar
    38    34    29   ar
    39     6     1    1
    40     8     1    1
    41    17    12   ar
    42    22    15    1
    43     9    10    1
    44    18    23    1
@<TRIPOS>MOLECULE
*****
 39 44 0 0 0
SMALL
GASTEIGER

@<TRIPOS>ATOM
      1 C         142.6024  138.3733  163.9029 C.3     1  UNL1        0.0932
      2 C         141.3611  138.0027  164.6590 C.3     1  UNL1        0.0286
      3 C         140.0979  137.6826  163.9161 C.3     1  UNL1        0.0193
      4 C         140.0761  137.7330  162.4171 C.3     1  UNL1        0.0700
      5 C         141.3175  138.1036  161.6610 C.3     1  UNL1        0.0193
      6 C         142.5807  138.4238  162.4040 C.3     1  UNL1        0.0286
      7 C         140.7918  137.9166  162.7803 C.3     1  UNL1        0.1562
      8 O         141.9340  138.2061  163.4521 O.3     1  UNL1       -0.3572
      9 N         138.8129  137.4129  161.6742 N.3     1  UNL1       -0.2926
     10 H         138.4787  136.5186  162.0333 H       1  UNL1        0.1236
     11 C         137.6519  138.3612  161.7253 C.3     1  UNL1        0.1152
     12 C         137.8925  139.8418  161.7297 C.ar    1  UNL1        0.0765
     13 C         138.2030  140.5551  160.4471 C.ar    1  UNL1        0.0193
     14 C         138.4435  142.0356  160.4516 C.ar    1  UNL1        0.0411
     15 C         138.3737  142.8029  161.7385 C.ar    1  UNL1        0.1708
     16 C         138.0632  142.0898  163.0211 C.ar    1  UNL1        0.1682
     17 N         137.8226  140.6091  163.0167 N.ar    1  UNL1       -0.2304
     18 N         137.9933  142.8571  164.3080 N.am    1  UNL1       -0.2639
     19 C         138.2339  144.3377  164.3125 C.2     1  UNL1        0.2718
     20 O         138.1640  145.1050  165.5994 O.2     1  UNL1       -0.2707
     21 C         138.5444  145.0509  163.0299 C.3     1  UNL1        0.2898
     22 O         138.6142  144.2836  161.7429 O.3     1  UNL1       -0.4628
     23 H         137.7895  142.3890  165.1498 H       1  UNL1        0.1565
     24 C         143.8656  138.6934  164.6458 C.3     1  UNL1        0.0320
     25 C         144.2825  140.1218  164.8357 C.3     1  UNL1        0.0335
     26 C         141.5852  140.8905  168.3547 C.ar    1  UNL1        0.2250
     27 C         140.5620  141.9854  168.2902 C.ar    1  UNL1        0.0593
     28 C         140.4379  142.8241  167.0528 C.ar    1  UNL1        0.0254
     29 C         141.3370  142.5679  165.8798 C.ar    1  UNL1        0.0990
     30 N         141.2129  143.4066  164.6424 N.ar    1  UNL1       -0.2392
     31 C         142.1120  143.1503  163.4694 C.ar    1  UNL1        0.1353
     32 C         143.1353  142.0554  163.5338 C.ar    1  UNL1        0.1552
     33 C         143.2593  141.2167  164.7712 C.ar    1  UNL1        0.0326
     34 C         142.3602  141.4730  165.9443 C.ar    1  UNL1        0.1009
     35 N         142.4843  140.6343  167.1817 N.ar    1  UNL1       -0.2104
     36 C         140.6530  140.1221  170.6548 C.3     1  UNL1        0.2542
     37 O         141.7093  140.0518  169.5921 O.3     1  UNL1       -0.4561
     38 O         144.0344  141.7992  162.3609 O.3     1  UNL1       -0.4701
     39 C         144.6075  142.9509  161.5895 C.3     1  UNL1        0.2525
@<TRIPOS>BOND
     1    36    37    1
     2    37    26    1
     3    26    27   ar
     4    27    28   ar
     5    28    29   ar
     6    29    30   ar
     7    30    31   ar
     8    31    32   ar
     9    32    38    1
    10    38    39    1
    11    32    33   ar
    12    33    25    1
    13    25    24    1
    14    24     1    1
    15     1     2    1
    16     2     3    1
    17     3     4    1
    18     4     9    1
    19     9    11    1
    20    11    12    1
    21    12    13   ar
    22    13    14   ar
    23    14    15   ar
    24    15    16   ar
    25    16    17   ar
    26    16    18    1
    27    18    19   am
    28    19    20    2
    29    19    21    1
    30    21    22    1
    31     4     5    1
    32     5     6    1
    33     4     7    1
    34     7     8    1
    35    33    34   ar
    36    34    35   ar
    37    35    26   ar
    38    34    29   ar
    39     6     1    1
    40     8     1    1
    41    17    12   ar
    42    22    15    1
    43     9    10    1
    44    18    23    1
@<TRIPOS>MOLECULE
*****
 39 44 0 0 0
SMALL
GASTEIGER

@<TRIPOS>ATOM
      1 C         137.8883  140.5066  161.9505 C.3     1  UNL1        0.0932
      2 C         138.5534  141.5677  161.1249 C.3     1  UNL1        0.0286
      3 C         138.7750  142.9357  161.6989 C.3     1  UNL1        0.0193
      4 C         138.3314  143.2426  163.0986 C.3     1  UNL1        0.0700
      5 C         137.6662  142.1815  163.9242 C.3     1  UNL1        0.0193
      6 C         137.4446  140.8135  163.3501 C.3     1  UNL1        0.0286
      7 C         138.1884  142.4785  162.8273 C.3     1  UNL1        0.1562
      8 O         137.9881  141.2415  162.3083 O.3     1  UNL1       -0.3572
      9 N         138.5529  144.6106  163.6726 N.3     1  UNL1       -0.2926
     10 H         137.7021  144.8596  164.1771 H       1  UNL1        0.1236
     11 C         139.6988  144.8543  164.6094 C.3     1  UNL1        0.1152
     12 C         141.0769  144.3864  164.2464 C.ar    1  UNL1        0.0765
     13 C         142.0099  145.3015  163.5100 C.ar    1  UNL1        0.0193
     14 C         143.3881  144.8336  163.1470 C.ar    1  UNL1        0.0411
     15 C         143.8332  143.4507  163.5203 C.ar    1  UNL1        0.1708
     16 C         142.9002  142.5356  164.2566 C.ar    1  UNL1        0.1682
     17 N         141.5220  143.0035  164.6196 N.ar    1  UNL1       -0.2304
     18 N         143.3454  141.1527  164.6299 N.am    1  UNL1       -0.2639
     19 C         144.7235  140.6848  164.2668 C.2     1  UNL1        0.2718
     20 O         145.1687  139.3019  164.6401 O.2     1  UNL1       -0.2707
     21 C         145.6566  141.5999  163.5305 C.3     1  UNL1        0.2898
     22 O         145.2114  142.9828  163.1572 O.3     1  UNL1       -0.4628
     23 H         142.7330  140.5521  165.1131 H       1  UNL1        0.1565
     24 C         137.6667  139.1386  161.3765 C.3     1  UNL1        0.0320
     25 C         138.2040  137.9313  162.0864 C.3     1  UNL1        0.0335
     26 C         141.9110  138.3232  159.5656 C.ar    1  UNL1        0.2250
     27 C         143.2602  138.3760  160.2190 C.ar    1  UNL1        0.0593
     28 C         143.3737  138.2982  161.7127 C.ar    1  UNL1        0.0254
     29 C         142.1380  138.1675  162.5530 C.ar    1  UNL1        0.0990
     30 N         142.2515  138.0897  164.0466 N.ar    1  UNL1       -0.2392
     31 C         141.0159  137.9591  164.8869 C.ar    1  UNL1        0.1353
     32 C         139.6666  137.9063  164.2335 C.ar    1  UNL1        0.1552
     33 C         139.5531  137.9841  162.7398 C.ar    1  UNL1        0.0326
     34 C         140.7889  138.1148  161.8996 C.ar    1  UNL1        0.1009
     35 N         140.6754  138.1926  160.4059 N.ar    1  UNL1       -0.2104
     36 C         142.7514  137.6326  157.2062 C.3     1  UNL1        0.2542
     37 O         141.7975  138.4011  158.0719 O.3     1  UNL1       -0.4561
     38 O         138.4310  137.7757  165.0738 O.3     1  UNL1       -0.4701
     39 C         138.1936  138.7245  166.2110 C.3     1  UNL1        0.2525
@<TRIPOS>BOND
     1    36    37    1
     2    37    26    1
     3    26    27   ar
     4    27    28   ar
     5    28    29   ar
     6    29    30   ar
     7    30    31   ar
     8    31    32   ar
     9    32    38    1
    10    38    39    1
    11    32    33   ar
    12    33    25    1
    13    25    24    1
    14    24     1    1
    15     1     2    1
    16     2     3    1
    17     3     4    1
    18     4     9    1
    19     9    11    1
    20    11    12    1
    21    12    13   ar
    22    13    14   ar
    23    14    15   ar
    24    15    16   ar
    25    16    17   ar
    26    16    18    1
    27    18    19   am
    28    19    20    2
    29    19    21    1
    30    21    22    1
    31     4     5    1
    32     5     6    1
    33     4     7    1
    34     7     8    1
    35    33    34   ar
    36    34    35   ar
    37    35    26   ar
    38    34    29   ar
    39     6     1    1
    40     8     1    1
    41    17    12   ar
    42    22    15    1
    43     9    10    1
    44    18    23    1
@<TRIPOS>MOLECULE
*****
 39 44 0 0 0
SMALL
GASTEIGER

@<TRIPOS>ATOM
      1 C         141.8640  137.9611  163.5921 C.3     1  UNL1        0.0932
      2 C         142.3577  138.3112  162.2196 C.3     1  UNL1        0.0286
      3 C         143.5759  139.1712  162.0575 C.3     1  UNL1        0.0193
      4 C         144.3005  139.6812  163.2679 C.3     1  UNL1        0.0700
      5 C         143.8068  139.3310  164.6404 C.3     1  UNL1        0.0193
      6 C         142.5886  138.4709  164.8024 C.3     1  UNL1        0.0286
      7 C         143.6375  139.2131  163.4068 C.3     1  UNL1        0.1562
      8 O         142.5360  138.4354  163.5535 O.3     1  UNL1       -0.3572
      9 N         145.5186  140.5412  163.1058 N.3     1  UNL1       -0.2926
     10 H         145.7671  140.5164  162.1168 H       1  UNL1        0.1236
     11 C         145.4750  141.9864  163.5052 C.3     1  UNL1        0.1152
     12 C         144.2179  142.7809  163.3096 C.ar    1  UNL1        0.0765
     13 C         143.3596  143.1292  164.4895 C.ar    1  UNL1        0.0193
     14 C         142.1024  143.9238  164.2940 C.ar    1  UNL1        0.0411
     15 C         141.7036  144.3701  162.9186 C.ar    1  UNL1        0.1708
     16 C         142.5618  144.0218  161.7387 C.ar    1  UNL1        0.1682
     17 N         143.8190  143.2272  161.9342 N.ar    1  UNL1       -0.2304
     18 N         142.1630  144.4681  160.3633 N.am    1  UNL1       -0.2639
     19 C         140.9058  145.2627  160.1678 C.2     1  UNL1        0.2718
     20 O         140.5070  145.7090  158.7924 O.2     1  UNL1       -0.2707
     21 C         140.0475  145.6110  161.3476 C.3     1  UNL1        0.2898
     22 O         140.4464  145.1647  162.7230 O.3     1  UNL1       -0.4628
     23 H         142.7263  144.2396  159.5890 H       1  UNL1        0.1565
     24 C         140.6458  137.1010  163.7542 C.3     1  UNL1        0.0320
     25 C         139.2790  137.7016  163.6088 C.3     1  UNL1        0.0335
     26 C         138.8706  139.9337  159.7229 C.ar    1  UNL1        0.2250
     27 C         138.7018  141.4241  159.7282 C.ar    1  UNL1        0.0593
     28 C         138.6691  142.1706  161.0289 C.ar    1  UNL1        0.0254
     29 C         138.8053  141.4266  162.3242 C.ar    1  UNL1        0.0990
     30 N         138.7726  142.1730  163.6249 N.ar    1  UNL1       -0.2392
     31 C         138.9087  141.4290  164.9202 C.ar    1  UNL1        0.1353
     32 C         139.0775  139.9384  164.9149 C.ar    1  UNL1        0.1552
     33 C         139.1102  139.1920  163.6142 C.ar    1  UNL1        0.0326
     34 C         138.9740  139.9361  162.3188 C.ar    1  UNL1        0.1009
     35 N         139.0067  139.1897  161.0182 N.ar    1  UNL1       -0.2104
     36 C         140.1170  138.3910  158.0447 C.3     1  UNL1        0.2542
     37 O         138.9032  139.1873  158.4222 O.3     1  UNL1       -0.4561
     38 O         139.2136  139.1944  166.2102 O.3     1  UNL1       -0.4701
     39 C         137.9883  138.7414  166.9473 C.3     1  UNL1        0.2525
@<TRIPOS>BOND
     1    36    37    1
     2    37    26    1
     3    26    27   ar
     4    27    28   ar
     5    28    29   ar
     6    29    30   ar
     7    30    31   ar
     8    31    32   ar
     9    32    38    1
    10    38    39    1
    11    32    33   ar
    12    33    25    1
    13    25    24    1
    14    24     1    1
    15     1     2    1
    16     2     3    1
    17     3     4    1
    18     4     9    1
    19     9    11    1
    20    11    12    1
    21    12    13   ar
    22    13    14   ar
    23    14    15   ar
    24    15    16   ar
    25    16    17   ar
    26    16    18    1
    27    18    19   am
    28    19    20    2
    29    19    21    1
    30    21    22    1
    31     4     5    1
    32     5     6    1
    33     4     7    1
    34     7     8    1
    35    33    34   ar
    36    34    35   ar
    37    35    26   ar
    38    34    29   ar
    39     6     1    1
    40     8     1    1
    41    17    12   ar
    42    22    15    1
    43     9    10    1
    44    18    23    1
@<TRIPOS>MOLECULE
*****
 39 44 0 0 0
SMALL
GASTEIGER

@<TRIPOS>ATOM
      1 C         138.2426  140.2576  164.1368 C.3     1  UNL1        0.0932
      2 C         138.0337  140.4618  162.6656 C.3     1  UNL1        0.0286
      3 C         137.8487  141.8464  162.1193 C.3     1  UNL1        0.0193
      4 C         137.8725  143.0270  163.0444 C.3     1  UNL1        0.0700
      5 C         138.0813  142.8228  164.5157 C.3     1  UNL1        0.0193
      6 C         138.2664  141.4381  165.0619 C.3     1  UNL1        0.0286
      7 C         137.9784  142.2873  163.3902 C.3     1  UNL1        0.1562
      8 O         138.1457  141.0353  163.8842 O.3     1  UNL1       -0.3572
      9 N         137.6874  144.4117  162.4982 N.3     1  UNL1       -0.2926
     10 H         136.9183  144.8333  163.0190 H       1  UNL1        0.1236
     11 C         138.8234  145.3906  162.5353 C.3     1  UNL1        0.1152
     12 C         140.2365  144.9050  162.4034 C.ar    1  UNL1        0.0765
     13 C         141.2457  145.2377  163.4621 C.ar    1  UNL1        0.0193
     14 C         142.6588  144.7521  163.3302 C.ar    1  UNL1        0.0411
     15 C         143.0627  143.9339  162.1396 C.ar    1  UNL1        0.1708
     16 C         142.0535  143.6013  161.0809 C.ar    1  UNL1        0.1682
     17 N         140.6403  144.0868  161.2128 N.ar    1  UNL1       -0.2304
     18 N         142.4573  142.7831  159.8904 N.am    1  UNL1       -0.2639
     19 C         143.8704  142.2975  159.7585 C.2     1  UNL1        0.2718
     20 O         144.2743  141.4794  158.5679 O.2     1  UNL1       -0.2707
     21 C         144.8797  142.6302  160.8172 C.3     1  UNL1        0.2898
     22 O         144.4758  143.4484  162.0077 O.3     1  UNL1       -0.4628
     23 H         141.7949  142.5648  159.1955 H       1  UNL1        0.1565
     24 C         138.4276  138.8729  164.6831 C.3     1  UNL1        0.0320
     25 C         139.8092  138.3368  164.9156 C.3     1  UNL1        0.0335
     26 C         142.0934  141.4484  167.2286 C.ar    1  UNL1        0.2250
     27 C         143.2764  142.1280  166.6052 C.ar    1  UNL1        0.0593
     28 C         143.6980  141.7704  165.2108 C.ar    1  UNL1        0.0254
     29 C         142.9366  140.7332  164.4398 C.ar    1  UNL1        0.0990
     30 N         143.3582  140.3755  163.0454 N.ar    1  UNL1       -0.2392
     31 C         142.5968  139.3383  162.2744 C.ar    1  UNL1        0.1353
     32 C         141.4138  138.6587  162.8978 C.ar    1  UNL1        0.1552
     33 C         140.9922  139.0164  164.2922 C.ar    1  UNL1        0.0326
     34 C         141.7536  140.0536  165.0632 C.ar    1  UNL1        0.1009
     35 N         141.3320  140.4113  166.4576 N.ar    1  UNL1       -0.2104
     36 C         141.4845  140.7286  169.6495 C.3     1  UNL1        0.2542
     37 O         141.6718  141.8061  168.6230 O.3     1  UNL1       -0.4561
     38 O         140.6524  137.6215  162.1268 O.3     1  UNL1       -0.4701
     39 C         139.8607  138.0180  160.9160 C.3     1  UNL1        0.2525
@<TRIPOS>BOND
     1    36    37    1
     2    37    26    1
     3    26    27   ar
     4    27    28   ar
     5    28    29   ar
     6    29    30   ar
     7    30    31   ar
     8    31    32   ar
     9    32    38    1
    10    38    39    1
    11    32    33   ar
    12    33    25    1
    13    25    24    1
    14    24     1    1
    15     1     2    1
    16     2     3    1
    17     3     4    1
    18     4     9    1
    19     9    11    1
    20    11    12    1
    21    12    13   ar
    22    13    14   ar
    23    14    15   ar
    24    15    16   ar
    25    16    17   ar
    26    16    18    1
    27    18    19   am
    28    19    20    2
    29    19    21    1
    30    21    22    1
    31     4     5    1
    32     5     6    1
    33     4     7    1
    34     7     8    1
    35    33    34   ar
    36    34    35   ar
    37    35    26   ar
    38    34    29   ar
    39     6     1    1
    40     8     1    1
    41    17    12   ar
    42    22    15    1
    43     9    10    1
    44    18    23    1
@<TRIPOS>MOLECULE
*****
 39 44 0 0 0
SMALL
GASTEIGER

@<TRIPOS>ATOM
      1 C         144.3779  139.8287  163.3870 C.3     1  UNL1        0.0932
      2 C         143.5482  139.4325  164.5721 C.3     1  UNL1        0.0286
      3 C         142.3941  138.4902  164.3984 C.3     1  UNL1        0.0193
      4 C         142.0698  137.9440  163.0395 C.3     1  UNL1        0.0700
      5 C         142.8995  138.3402  161.8543 C.3     1  UNL1        0.0193
      6 C         144.0536  139.2826  162.0281 C.3     1  UNL1        0.0286
      7 C         142.7119  138.4574  163.0853 C.3     1  UNL1        0.1562
      8 O         143.7554  139.3095  163.2423 O.3     1  UNL1       -0.3572
      9 N         140.9158  137.0017  162.8658 N.3     1  UNL1       -0.2926
     10 H         140.8473  136.4582  163.7262 H       1  UNL1        0.1236
     11 C         139.5443  137.5395  162.5831 C.3     1  UNL1        0.1152
     12 C         139.1002  138.8282  163.2093 C.ar    1  UNL1        0.0765
     13 C         138.6110  138.8436  164.6272 C.ar    1  UNL1        0.0193
     14 C         138.1669  140.1322  165.2534 C.ar    1  UNL1        0.0411
     15 C         138.2121  141.4055  164.4618 C.ar    1  UNL1        0.1708
     16 C         138.7013  141.3901  163.0439 C.ar    1  UNL1        0.1682
     17 N         139.1454  140.1014  162.4176 N.ar    1  UNL1       -0.2304
     18 N         138.7464  142.6634  162.2522 N.am    1  UNL1       -0.2639
     19 C         138.3024  143.9520  162.8784 C.2     1  UNL1        0.2718
     20 O         138.3475  145.2253  162.0868 O.2     1  UNL1       -0.2707
     21 C         137.8131  143.9674  164.2964 C.3     1  UNL1        0.2898
     22 O         137.7680  142.6942  165.0880 O.3     1  UNL1       -0.4628
     23 H         139.0675  142.6533  161.3216 H       1  UNL1        0.1565
     24 C         145.5319  140.7710  163.5607 C.3     1  UNL1        0.0320
     25 C         145.4307  142.1812  163.0594 C.3     1  UNL1        0.0335
     26 C         143.4077  143.2405  159.1819 C.ar    1  UNL1        0.2250
     27 C         142.0851  143.9480  159.1948 C.ar    1  UNL1        0.0593
     28 C         141.4369  144.3024  160.5003 C.ar    1  UNL1        0.0254
     29 C         142.1112  143.9494  161.7927 C.ar    1  UNL1        0.0990
     30 N         141.4630  144.3038  163.0982 N.ar    1  UNL1       -0.2392
     31 C         142.1373  143.9507  164.3907 C.ar    1  UNL1        0.1353
     32 C         143.4599  143.2432  164.3778 C.ar    1  UNL1        0.1552
     33 C         144.1082  142.8887  163.0723 C.ar    1  UNL1        0.0326
     34 C         143.4338  143.2419  161.7798 C.ar    1  UNL1        0.1009
     35 N         144.0820  142.8874  160.4744 N.ar    1  UNL1       -0.2104
     36 C         145.3112  142.0652  157.8609 C.3     1  UNL1        0.2542
     37 O         144.0559  142.8861  157.8764 O.3     1  UNL1       -0.4561
     38 O         144.1342  142.8901  165.6703 O.3     1  UNL1       -0.4701
     39 C         143.3167  142.4372  166.8435 C.3     1  UNL1        0.2525
@<TRIPOS>BOND
     1    36    37    1
     2    37    26    1
     3    26    27   ar
     4    27    28   ar
     5    28    29   ar
     6    29    30   ar
     7    30    31   ar
     8    31    32   ar
     9    32    38    1
    10    38    39    1
    11    32    33   ar
    12    33    25    1
    13    25    24    1
    14    24     1    1
    15     1     2    1
    16     2     3    1
    17     3     4    1
    18     4     9    1
    19     9    11    1
    20    11    12    1
    21    12    13   ar
    22    13    14   ar
    23    14    15   ar
    24    15    16   ar
    25    16    17   ar
    26    16    18    1
    27    18    19   am
    28    19    20    2
    29    19    21    1
    30    21    22    1
    31     4     5    1
    32     5     6    1
    33     4     7    1
    34     7     8    1
    35    33    34   ar
    36    34    35   ar
    37    35    26   ar
    38    34    29   ar
    39     6     1    1
    40     8     1    1
    41    17    12   ar
    42    22    15    1
    43     9    10    1
    44    18    23    1
