@<TRIPOS>MOLECULE
*****
 35 38 0 0 0
SMALL
GASTEIGER

@<TRIPOS>ATOM
      1 C         137.9360  139.6787  161.8383 C.3     1  UNL1        0.2722
      2 C         138.3461  140.3961  160.5863 C.2     1  UNL1        0.2701
      3 O         138.8855  139.6215  159.4206 O.2     1  UNL1       -0.2707
      4 N         138.2166  141.8880  160.5002 N.am    1  UNL1       -0.2663
      5 H         137.8625  142.3963  161.2653 H       1  UNL1        0.1564
      6 C         138.6265  142.6054  159.2483 C.ar    1  UNL1        0.1343
      7 C         139.8048  143.5334  159.2673 C.ar    1  UNL1        0.0352
      8 C         140.2148  144.2508  158.0155 C.ar    1  UNL1        0.0147
      9 C         139.4465  144.0401  156.7445 C.ar    1  UNL1        0.0877
     10 C         138.2682  143.1121  156.7254 C.ar    1  UNL1        0.1105
     11 N         137.8582  142.3947  157.9774 N.ar    1  UNL1       -0.2283
     12 C         139.8565  144.7575  155.4926 C.1     1  UNL1        0.1020
     13 N         140.2665  145.4749  154.2407 N.1     1  UNL1       -0.1908
     14 C         138.0289  138.1834  161.9105 C.3     1  UNL1        0.1950
     15 O         138.7190  137.5299  163.0709 O.3     1  UNL1       -0.3519
     16 C         140.8954  137.2251  164.4569 C.3     1  UNL1        0.0320
     17 C         140.2165  137.5445  163.1580 C.3     1  UNL1        0.1156
     18 C         141.0350  137.8785  161.9463 C.3     1  UNL1        0.0320
     19 O         137.4332  140.4568  163.0180 O.3     1  UNL1       -0.4517
     20 C         138.4056  141.0691  163.9822 C.ar    1  UNL1        0.2312
     21 N         139.1483  142.3172  163.6074 N.ar    1  UNL1       -0.1892
     22 C         140.1206  142.9295  164.5716 C.ar    1  UNL1        0.2029
     23 N         140.3502  142.2936  165.9106 N.ar    1  UNL1       -0.2046
     24 C         139.6075  141.0455  166.2854 C.ar    1  UNL1        0.1715
     25 C         138.6352  140.4333  165.3213 C.ar    1  UNL1        0.1098
     26 C         138.0529  139.2095  165.9644 C.ar    1  UNL1        0.1283
     27 N         138.6654  139.0655  167.3260 N.ar    1  UNL1       -0.1619
     28 N         139.6262  140.2002  167.5244 N.ar    1  UNL1       -0.2111
     29 C         140.4594  140.4464  168.7472 C.ar    1  UNL1        0.0949
     30 C         139.8599  141.1356  169.9370 C.ar    1  UNL1        0.0201
     31 C         140.6931  141.3818  171.1598 C.ar    1  UNL1        0.0016
     32 C         142.1259  140.9388  171.1927 C.ar    1  UNL1        0.0010
     33 C         142.7253  140.2497  170.0029 C.ar    1  UNL1        0.0129
     34 C         141.8921  140.0035  168.7802 C.ar    1  UNL1        0.0753
     35 CL        142.4917  139.3143  167.5904 Cl      1  UNL1       -0.0807
@<TRIPOS>BOND
     1    16    17    1
     2    17    18    1
     3    17    15    1
     4    15    14    1
     5     1    14    1
     6     1    19    1
     7    19    20    1
     8    20    21   ar
     9    21    22   ar
    10    22    23   ar
    11    23    24   ar
    12    24    25   ar
    13    25    26   ar
    14    26    27   ar
    15    27    28   ar
    16    28    29    1
    17    29    30   ar
    18    30    31   ar
    19    31    32   ar
    20    32    33   ar
    21    33    34   ar
    22    34    35    1
    23     1     2    1
    24     2     3    2
    25     2     4   am
    26     4     6    1
    27     6     7   ar
    28     7     8   ar
    29     8     9   ar
    30     9    12    1
    31    12    13    3
    32     9    10   ar
    33    10    11   ar
    34    25    20   ar
    35    34    29   ar
    36    11     6   ar
    37    28    24   ar
    38     4     5    1
@<TRIPOS>MOLECULE
*****
 35 38 0 0 0
SMALL
GASTEIGER

@<TRIPOS>ATOM
      1 C         137.9423  142.7117  163.7156 C.3     1  UNL1        0.2722
      2 C         138.6433  141.8340  164.7098 C.2     1  UNL1        0.2701
      3 O         138.1513  140.4387  164.9564 O.2     1  UNL1       -0.2707
      4 N         139.8363  142.3517  165.4573 N.am    1  UNL1       -0.2663
      5 H         140.1592  143.2675  165.2954 H       1  UNL1        0.1564
      6 C         140.5373  141.4740  166.4514 C.ar    1  UNL1        0.1343
      7 C         141.8618  140.8600  166.1070 C.ar    1  UNL1        0.0352
      8 C         142.5627  139.9823  167.1011 C.ar    1  UNL1        0.0147
      9 C         141.9392  139.7186  168.4397 C.ar    1  UNL1        0.0877
     10 C         140.6147  140.3327  168.7841 C.ar    1  UNL1        0.1105
     11 N         139.9137  141.2104  167.7899 N.ar    1  UNL1       -0.2283
     12 C         142.6402  138.8409  169.4338 C.1     1  UNL1        0.1020
     13 N         143.3411  137.9632  170.4280 N.1     1  UNL1       -0.1908
     14 C         137.9011  144.1966  163.9240 C.3     1  UNL1        0.1950
     15 O         139.1409  144.9299  164.3426 O.3     1  UNL1       -0.3519
     16 C         141.6267  145.0451  163.5960 C.3     1  UNL1        0.0320
     17 C         140.1744  145.3001  163.3205 C.3     1  UNL1        0.1156
     18 C         139.7558  145.9254  162.0229 C.3     1  UNL1        0.0320
     19 O         137.2826  142.1046  162.5131 O.3     1  UNL1       -0.4517
     20 C         138.0630  141.9124  161.2465 C.ar    1  UNL1        0.2312
     21 N         138.3401  143.0837  160.3513 N.ar    1  UNL1       -0.1892
     22 C         139.1204  142.8915  159.0848 C.ar    1  UNL1        0.2029
     23 N         139.6236  141.5281  158.7134 N.ar    1  UNL1       -0.2046
     24 C         139.3465  140.3568  159.6086 C.ar    1  UNL1        0.1715
     25 C         138.5661  140.5490  160.8751 C.ar    1  UNL1        0.1098
     26 C         138.4491  139.2166  161.5542 C.ar    1  UNL1        0.1283
     27 N         139.1571  138.2010  160.7073 N.ar    1  UNL1       -0.1619
     28 N         139.7117  138.9057  159.5048 N.ar    1  UNL1       -0.2111
     29 C         140.4941  138.2707  158.3937 C.ar    1  UNL1        0.0949
     30 C         139.7819  137.7225  157.1929 C.ar    1  UNL1        0.0201
     31 C         140.5643  137.0875  156.0818 C.ar    1  UNL1        0.0016
     32 C         142.0591  137.0008  156.1715 C.ar    1  UNL1        0.0010
     33 C         142.7714  137.5490  157.3723 C.ar    1  UNL1        0.0129
     34 C         141.9889  138.1840  158.4834 C.ar    1  UNL1        0.0753
     35 CL        142.7013  138.7322  159.6842 Cl      1  UNL1       -0.0807
@<TRIPOS>BOND
     1    16    17    1
     2    17    18    1
     3    17    15    1
     4    15    14    1
     5     1    14    1
     6     1    19    1
     7    19    20    1
     8    20    21   ar
     9    21    22   ar
    10    22    23   ar
    11    23    24   ar
    12    24    25   ar
    13    25    26   ar
    14    26    27   ar
    15    27    28   ar
    16    28    29    1
    17    29    30   ar
    18    30    31   ar
    19    31    32   ar
    20    32    33   ar
    21    33    34   ar
    22    34    35    1
    23     1     2    1
    24     2     3    2
    25     2     4   am
    26     4     6    1
    27     6     7   ar
    28     7     8   ar
    29     8     9   ar
    30     9    12    1
    31    12    13    3
    32     9    10   ar
    33    10    11   ar
    34    25    20   ar
    35    34    29   ar
    36    11     6   ar
    37    28    24   ar
    38     4     5    1
@<TRIPOS>MOLECULE
*****
 35 38 0 0 0
SMALL
GASTEIGER

@<TRIPOS>ATOM
      1 C         142.9514  138.4455  156.7176 C.3     1  UNL1        0.2722
      2 C         143.4507  137.0716  156.3810 C.2     1  UNL1        0.2701
      3 O         144.7199  136.9055  155.5991 O.2     1  UNL1       -0.2707
      4 N         142.6807  135.8638  156.8265 N.am    1  UNL1       -0.2663
      5 H         141.8476  135.9729  157.3397 H       1  UNL1        0.1564
      6 C         143.1798  134.4900  156.4900 C.ar    1  UNL1        0.1343
      7 C         142.7922  133.8485  155.1906 C.ar    1  UNL1        0.0352
      8 C         143.2914  132.4747  154.8541 C.ar    1  UNL1        0.0147
      9 C         144.1783  131.7422  155.8170 C.ar    1  UNL1        0.0877
     10 C         144.5659  132.3836  157.1163 C.ar    1  UNL1        0.1105
     11 N         144.0667  133.7576  157.4528 N.ar    1  UNL1       -0.2283
     12 C         144.6774  130.3683  155.4804 C.1     1  UNL1        0.1020
     13 N         145.1767  128.9944  155.1439 N.1     1  UNL1       -0.1908
     14 C         143.6859  139.6538  156.2172 C.3     1  UNL1        0.1950
     15 O         144.9815  140.0610  156.8539 O.3     1  UNL1       -0.3519
     16 C         146.5413  142.1102  156.5096 C.3     1  UNL1        0.0320
     17 C         145.2856  141.5135  157.0730 C.3     1  UNL1        0.1156
     18 C         144.3342  142.3693  157.8555 C.3     1  UNL1        0.0320
     19 O         141.7177  138.6110  157.5546 O.3     1  UNL1       -0.4517
     20 C         141.7868  138.4122  159.0398 C.ar    1  UNL1        0.2312
     21 N         143.0614  137.9411  159.6750 N.ar    1  UNL1       -0.1892
     22 C         143.1304  137.7423  161.1601 C.ar    1  UNL1        0.2029
     23 N         141.9249  138.0147  162.0101 N.ar    1  UNL1       -0.2046
     24 C         140.6503  138.4858  161.3750 C.ar    1  UNL1        0.1715
     25 C         140.5813  138.6846  159.8898 C.ar    1  UNL1        0.1098
     26 C         139.1981  139.1543  159.5488 C.ar    1  UNL1        0.1283
     27 N         138.4123  139.2458  160.8232 N.ar    1  UNL1       -0.1619
     28 N         139.3098  138.8327  161.9518 N.ar    1  UNL1       -0.2111
     29 C         138.9330  138.7763  163.4026 C.ar    1  UNL1        0.0949
     30 C         138.9565  137.4665  164.1333 C.ar    1  UNL1        0.0201
     31 C         138.5797  137.4101  165.5841 C.ar    1  UNL1        0.0016
     32 C         138.1794  138.6635  166.3043 C.ar    1  UNL1        0.0010
     33 C         138.1560  139.9733  165.5736 C.ar    1  UNL1        0.0129
     34 C         138.5328  140.0297  164.1228 C.ar    1  UNL1        0.0753
     35 CL        138.5093  141.3395  163.3923 Cl      1  UNL1       -0.0807
@<TRIPOS>BOND
     1    16    17    1
     2    17    18    1
     3    17    15    1
     4    15    14    1
     5     1    14    1
     6     1    19    1
     7    19    20    1
     8    20    21   ar
     9    21    22   ar
    10    22    23   ar
    11    23    24   ar
    12    24    25   ar
    13    25    26   ar
    14    26    27   ar
    15    27    28   ar
    16    28    29    1
    17    29    30   ar
    18    30    31   ar
    19    31    32   ar
    20    32    33   ar
    21    33    34   ar
    22    34    35    1
    23     1     2    1
    24     2     3    2
    25     2     4   am
    26     4     6    1
    27     6     7   ar
    28     7     8   ar
    29     8     9   ar
    30     9    12    1
    31    12    13    3
    32     9    10   ar
    33    10    11   ar
    34    25    20   ar
    35    34    29   ar
    36    11     6   ar
    37    28    24   ar
    38     4     5    1
@<TRIPOS>MOLECULE
*****
 35 38 0 0 0
SMALL
GASTEIGER

@<TRIPOS>ATOM
      1 C         139.0281  144.1109  162.4767 C.3     1  UNL1        0.2722
      2 C         138.9555  143.5051  163.8470 C.2     1  UNL1        0.2701
      3 O         137.7584  143.7557  164.7154 O.2     1  UNL1       -0.2707
      4 N         140.0800  142.6486  164.3490 N.am    1  UNL1       -0.2663
      5 H         140.8657  142.4842  163.7790 H       1  UNL1        0.1564
      6 C         140.0074  142.0429  165.7192 C.ar    1  UNL1        0.1343
      7 C         139.4467  140.6635  165.9008 C.ar    1  UNL1        0.0352
      8 C         139.3742  140.0577  167.2710 C.ar    1  UNL1        0.0147
      9 C         139.8623  140.8313  168.4599 C.ar    1  UNL1        0.0877
     10 C         140.4231  142.2107  168.2784 C.ar    1  UNL1        0.1105
     11 N         140.4956  142.8164  166.9080 N.ar    1  UNL1       -0.2283
     12 C         139.7898  140.2255  169.8302 C.1     1  UNL1        0.1020
     13 N         139.7172  139.6197  171.2006 N.1     1  UNL1       -0.1908
     14 C         139.9314  145.2806  162.2207 C.3     1  UNL1        0.1950
     15 O         141.1024  145.5354  163.1228 O.3     1  UNL1       -0.3519
     16 C         142.5780  143.9893  161.6455 C.3     1  UNL1        0.0320
     17 C         142.4182  144.8687  162.8502 C.3     1  UNL1        0.1156
     18 C         143.5741  145.0813  163.7822 C.3     1  UNL1        0.0320
     19 O         138.1973  143.5468  161.3624 O.3     1  UNL1       -0.4517
     20 C         138.3307  142.1012  160.9851 C.ar    1  UNL1        0.2312
     21 N         137.5043  141.0638  161.6858 N.ar    1  UNL1       -0.1892
     22 C         137.6377  139.6183  161.3085 C.ar    1  UNL1        0.2029
     23 N         138.5975  139.2100  160.2305 N.ar    1  UNL1       -0.2046
     24 C         139.4239  140.2473  159.5298 C.ar    1  UNL1        0.1715
     25 C         139.2905  141.6929  159.9071 C.ar    1  UNL1        0.1098
     26 C         140.2301  142.4851  159.0470 C.ar    1  UNL1        0.1283
     27 N         140.9442  141.5290  158.1382 N.ar    1  UNL1       -0.1619
     28 N         140.4459  140.1460  158.4366 N.ar    1  UNL1       -0.2111
     29 C         140.8915  138.8833  157.7604 C.ar    1  UNL1        0.0949
     30 C         140.0400  138.2638  156.6922 C.ar    1  UNL1        0.0201
     31 C         140.4855  137.0012  156.0161 C.ar    1  UNL1        0.0016
     32 C         141.7827  136.3580  156.4081 C.ar    1  UNL1        0.0010
     33 C         142.6342  136.9775  157.4763 C.ar    1  UNL1        0.0129
     34 C         142.1886  138.2401  158.1524 C.ar    1  UNL1        0.0753
     35 CL        143.0402  138.8596  159.2206 Cl      1  UNL1       -0.0807
@<TRIPOS>BOND
     1    16    17    1
     2    17    18    1
     3    17    15    1
     4    15    14    1
     5     1    14    1
     6     1    19    1
     7    19    20    1
     8    20    21   ar
     9    21    22   ar
    10    22    23   ar
    11    23    24   ar
    12    24    25   ar
    13    25    26   ar
    14    26    27   ar
    15    27    28   ar
    16    28    29    1
    17    29    30   ar
    18    30    31   ar
    19    31    32   ar
    20    32    33   ar
    21    33    34   ar
    22    34    35    1
    23     1     2    1
    24     2     3    2
    25     2     4   am
    26     4     6    1
    27     6     7   ar
    28     7     8   ar
    29     8     9   ar
    30     9    12    1
    31    12    13    3
    32     9    10   ar
    33    10    11   ar
    34    25    20   ar
    35    34    29   ar
    36    11     6   ar
    37    28    24   ar
    38     4     5    1
@<TRIPOS>MOLECULE
*****
 35 38 0 0 0
SMALL
GASTEIGER

@<TRIPOS>ATOM
      1 C         144.0182  140.2023  161.2266 C.3     1  UNL1        0.2722
      2 C         143.4410  141.2361  160.3055 C.2     1  UNL1        0.2701
      3 O         144.1057  141.5256  158.9924 O.2     1  UNL1       -0.2707
      4 N         142.1990  141.9802  160.6977 N.am    1  UNL1       -0.2663
      5 H         141.7627  141.7902  161.5595 H       1  UNL1        0.1564
      6 C         141.6218  143.0139  159.7767 C.ar    1  UNL1        0.1343
      7 C         140.4410  142.6757  158.9156 C.ar    1  UNL1        0.0352
      8 C         139.8638  143.7094  157.9946 C.ar    1  UNL1        0.0147
      9 C         140.4673  145.0814  157.9347 C.ar    1  UNL1        0.0877
     10 C         141.6480  145.4196  158.7958 C.ar    1  UNL1        0.1105
     11 N         142.2252  144.3858  159.7168 N.ar    1  UNL1       -0.2283
     12 C         139.8900  146.1151  157.0138 C.1     1  UNL1        0.1020
     13 N         139.3127  147.1488  156.0928 N.1     1  UNL1       -0.1908
     14 C         143.8499  138.7443  160.9171 C.3     1  UNL1        0.1950
     15 O         143.2428  137.8265  161.9365 O.3     1  UNL1       -0.3519
     16 C         140.8489  138.3507  161.0736 C.3     1  UNL1        0.0320
     17 C         141.7563  137.8065  162.1368 C.3     1  UNL1        0.1156
     18 C         141.1774  137.2423  163.4003 C.3     1  UNL1        0.0320
     19 O         144.7638  140.6267  162.4570 O.3     1  UNL1       -0.4517
     20 C         144.0257  141.2548  163.6019 C.ar    1  UNL1        0.2312
     21 N         143.6451  142.7045  163.5439 N.ar    1  UNL1       -0.1892
     22 C         142.9070  143.3326  164.6887 C.ar    1  UNL1        0.2029
     23 N         142.5495  142.5109  165.8917 N.ar    1  UNL1       -0.2046
     24 C         142.9301  141.0612  165.9497 C.ar    1  UNL1        0.1715
     25 C         143.6682  140.4331  164.8049 C.ar    1  UNL1        0.1098
     26 C         143.9090  138.9918  165.1435 C.ar    1  UNL1        0.1283
     27 N         143.3197  138.7291  166.4976 N.ar    1  UNL1       -0.1619
     28 N         142.7147  140.0080  166.9959 N.ar    1  UNL1       -0.2111
     29 C         142.0169  140.2001  168.3097 C.ar    1  UNL1        0.0949
     30 C         142.8152  140.4697  169.5506 C.ar    1  UNL1        0.0201
     31 C         142.1174  140.6618  170.8644 C.ar    1  UNL1        0.0016
     32 C         140.6211  140.5843  170.9374 C.ar    1  UNL1        0.0010
     33 C         139.8228  140.3147  169.6964 C.ar    1  UNL1        0.0129
     34 C         140.5207  140.1226  168.3826 C.ar    1  UNL1        0.0753
     35 CL        139.7223  139.8529  167.1417 Cl      1  UNL1       -0.0807
@<TRIPOS>BOND
     1    16    17    1
     2    17    18    1
     3    17    15    1
     4    15    14    1
     5     1    14    1
     6     1    19    1
     7    19    20    1
     8    20    21   ar
     9    21    22   ar
    10    22    23   ar
    11    23    24   ar
    12    24    25   ar
    13    25    26   ar
    14    26    27   ar
    15    27    28   ar
    16    28    29    1
    17    29    30   ar
    18    30    31   ar
    19    31    32   ar
    20    32    33   ar
    21    33    34   ar
    22    34    35    1
    23     1     2    1
    24     2     3    2
    25     2     4   am
    26     4     6    1
    27     6     7   ar
    28     7     8   ar
    29     8     9   ar
    30     9    12    1
    31    12    13    3
    32     9    10   ar
    33    10    11   ar
    34    25    20   ar
    35    34    29   ar
    36    11     6   ar
    37    28    24   ar
    38     4     5    1
@<TRIPOS>MOLECULE
*****
 35 38 0 0 0
SMALL
GASTEIGER

@<TRIPOS>ATOM
      1 C         141.6390  139.1645  158.5654 C.3     1  UNL1        0.2722
      2 C         141.6697  137.9034  157.7536 C.2     1  UNL1        0.2701
      3 O         140.3976  137.3428  157.1905 O.2     1  UNL1       -0.2707
      4 N         142.9727  137.2031  157.5051 N.am    1  UNL1       -0.2663
      5 H         143.8077  137.5711  157.8747 H       1  UNL1        0.1564
      6 C         143.0035  135.9421  156.6934 C.ar    1  UNL1        0.1343
      7 C         143.2684  134.6259  157.3623 C.ar    1  UNL1        0.0352
      8 C         143.2992  133.3649  156.5506 C.ar    1  UNL1        0.0147
      9 C         143.0652  133.4201  155.0699 C.ar    1  UNL1        0.0877
     10 C         142.8003  134.7363  154.4010 C.ar    1  UNL1        0.1105
     11 N         142.7695  135.9973  155.2128 N.ar    1  UNL1       -0.2283
     12 C         143.0960  132.1591  154.2582 C.1     1  UNL1        0.1020
     13 N         143.1268  130.8980  153.4465 N.1     1  UNL1       -0.1908
     14 C         142.8706  140.0128  158.6801 C.3     1  UNL1        0.1950
     15 O         144.0962  139.4687  159.3522 O.3     1  UNL1       -0.3519
     16 C         144.1762  140.3590  161.7917 C.3     1  UNL1        0.0320
     17 C         144.0894  139.2112  160.8300 C.3     1  UNL1        0.1156
     18 C         143.9956  137.8059  161.3460 C.3     1  UNL1        0.0320
     19 O         140.3765  139.5771  159.2624 O.3     1  UNL1       -0.4517
     20 C         140.4460  140.2870  160.5820 C.ar    1  UNL1        0.2312
     21 N         140.4719  141.7861  160.6268 N.ar    1  UNL1       -0.1892
     22 C         140.5414  142.4959  161.9463 C.ar    1  UNL1        0.2029
     23 N         140.5849  141.7066  163.2212 N.ar    1  UNL1       -0.2046
     24 C         140.5589  140.2075  163.1764 C.ar    1  UNL1        0.1715
     25 C         140.4895  139.4977  161.8568 C.ar    1  UNL1        0.1098
     26 C         140.4776  138.0218  162.1244 C.ar    1  UNL1        0.1283
     27 N         140.5398  137.8194  163.6094 N.ar    1  UNL1       -0.1619
     28 N         140.5901  139.1703  164.2595 N.ar    1  UNL1       -0.2111
     29 C         140.6593  139.4371  165.7340 C.ar    1  UNL1        0.0949
     30 C         141.9905  139.5101  166.4213 C.ar    1  UNL1        0.0201
     31 C         142.0597  139.7770  167.8958 C.ar    1  UNL1        0.0016
     32 C         140.7976  139.9708  168.6830 C.ar    1  UNL1        0.0010
     33 C         139.4664  139.8978  167.9956 C.ar    1  UNL1        0.0129
     34 C         139.3972  139.6310  166.5212 C.ar    1  UNL1        0.0753
     35 CL        138.0659  139.5580  165.8339 Cl      1  UNL1       -0.0807
@<TRIPOS>BOND
     1    16    17    1
     2    17    18    1
     3    17    15    1
     4    15    14    1
     5     1    14    1
     6     1    19    1
     7    19    20    1
     8    20    21   ar
     9    21    22   ar
    10    22    23   ar
    11    23    24   ar
    12    24    25   ar
    13    25    26   ar
    14    26    27   ar
    15    27    28   ar
    16    28    29    1
    17    29    30   ar
    18    30    31   ar
    19    31    32   ar
    20    32    33   ar
    21    33    34   ar
    22    34    35    1
    23     1     2    1
    24     2     3    2
    25     2     4   am
    26     4     6    1
    27     6     7   ar
    28     7     8   ar
    29     8     9   ar
    30     9    12    1
    31    12    13    3
    32     9    10   ar
    33    10    11   ar
    34    25    20   ar
    35    34    29   ar
    36    11     6   ar
    37    28    24   ar
    38     4     5    1
@<TRIPOS>MOLECULE
*****
 35 38 0 0 0
SMALL
GASTEIGER

@<TRIPOS>ATOM
      1 C         143.0394  138.6751  163.0360 C.3     1  UNL1        0.2722
      2 C         142.7861  139.0511  164.4660 C.2     1  UNL1        0.2701
      3 O         143.4908  138.3198  165.5698 O.2     1  UNL1       -0.2707
      4 N         141.8282  140.1584  164.7919 N.am    1  UNL1       -0.2663
      5 H         141.3656  140.6383  164.0674 H       1  UNL1        0.1564
      6 C         141.5749  140.5344  166.2217 C.ar    1  UNL1        0.1343
      7 C         140.4109  139.9408  166.9584 C.ar    1  UNL1        0.0352
      8 C         140.1576  140.3168  168.3883 C.ar    1  UNL1        0.0147
      9 C         141.0684  141.2865  169.0814 C.ar    1  UNL1        0.0877
     10 C         142.2324  141.8800  168.3447 C.ar    1  UNL1        0.1105
     11 N         142.4857  141.5040  166.9148 N.ar    1  UNL1       -0.2283
     12 C         140.8151  141.6625  170.5112 C.1     1  UNL1        0.1020
     13 N         140.5618  142.0386  171.9411 N.1     1  UNL1       -0.1908
     14 C         142.1917  137.6295  162.3741 C.3     1  UNL1        0.1950
     15 O         141.0610  136.9935  163.1270 O.3     1  UNL1       -0.3519
     16 C         138.9210  137.7602  164.3850 C.3     1  UNL1        0.0320
     17 C         139.7002  137.6244  163.1105 C.3     1  UNL1        0.1156
     18 C         139.1187  138.1195  161.8195 C.3     1  UNL1        0.0320
     19 O         144.1403  139.3447  162.2682 O.3     1  UNL1       -0.4517
     20 C         143.9827  140.7666  161.8171 C.ar    1  UNL1        0.2312
     21 N         144.6122  141.8774  162.6044 N.ar    1  UNL1       -0.1892
     22 C         144.4546  143.2992  162.1533 C.ar    1  UNL1        0.2029
     23 N         143.6674  143.6103  160.9149 N.ar    1  UNL1       -0.2046
     24 C         143.0379  142.4995  160.1276 C.ar    1  UNL1        0.1715
     25 C         143.1955  141.0777  160.5787 C.ar    1  UNL1        0.1098
     26 C         142.4663  140.1992  159.6058 C.ar    1  UNL1        0.1283
     27 N         141.8580  141.0781  158.5535 N.ar    1  UNL1       -0.1619
     28 N         142.2113  142.4998  158.8760 N.ar    1  UNL1       -0.2111
     29 C         141.8086  143.7094  158.0856 C.ar    1  UNL1        0.0949
     30 C         142.5131  144.0353  156.8020 C.ar    1  UNL1        0.0201
     31 C         142.1104  145.2449  156.0116 C.ar    1  UNL1        0.0016
     32 C         141.0033  146.1286  156.5048 C.ar    1  UNL1        0.0010
     33 C         140.2988  145.8027  157.7883 C.ar    1  UNL1        0.0129
     34 C         140.7015  144.5931  158.5787 C.ar    1  UNL1        0.0753
     35 CL        139.9970  144.2673  159.8622 Cl      1  UNL1       -0.0807
@<TRIPOS>BOND
     1    16    17    1
     2    17    18    1
     3    17    15    1
     4    15    14    1
     5     1    14    1
     6     1    19    1
     7    19    20    1
     8    20    21   ar
     9    21    22   ar
    10    22    23   ar
    11    23    24   ar
    12    24    25   ar
    13    25    26   ar
    14    26    27   ar
    15    27    28   ar
    16    28    29    1
    17    29    30   ar
    18    30    31   ar
    19    31    32   ar
    20    32    33   ar
    21    33    34   ar
    22    34    35    1
    23     1     2    1
    24     2     3    2
    25     2     4   am
    26     4     6    1
    27     6     7   ar
    28     7     8   ar
    29     8     9   ar
    30     9    12    1
    31    12    13    3
    32     9    10   ar
    33    10    11   ar
    34    25    20   ar
    35    34    29   ar
    36    11     6   ar
    37    28    24   ar
    38     4     5    1
@<TRIPOS>MOLECULE
*****
 35 38 0 0 0
SMALL
GASTEIGER

@<TRIPOS>ATOM
      1 C         139.3722  138.4410  162.8533 C.3     1  UNL1        0.2722
      2 C         139.7282  138.8729  164.2451 C.2     1  UNL1        0.2701
      3 O         140.8209  138.1679  164.9927 O.2     1  UNL1       -0.2707
      4 N         138.9914  140.0097  164.8891 N.am    1  UNL1       -0.2663
      5 H         138.2742  140.4724  164.3984 H       1  UNL1        0.1564
      6 C         139.3473  140.4415  166.2808 C.ar    1  UNL1        0.1343
      7 C         140.0537  141.7459  166.5038 C.ar    1  UNL1        0.0352
      8 C         140.4096  142.1777  167.8954 C.ar    1  UNL1        0.0147
      9 C         140.0592  141.3052  169.0642 C.ar    1  UNL1        0.0877
     10 C         139.3528  140.0009  168.8412 C.ar    1  UNL1        0.1105
     11 N         138.9969  139.5690  167.4495 N.ar    1  UNL1       -0.2283
     12 C         140.4151  141.7371  170.4559 C.1     1  UNL1        0.1020
     13 N         140.7711  142.1689  171.8476 N.1     1  UNL1       -0.1908
     14 C         138.1359  138.9775  162.1947 C.3     1  UNL1        0.1950
     15 O         137.6031  140.3246  162.5839 O.3     1  UNL1       -0.3519
     16 C         138.3652  141.3878  160.3391 C.3     1  UNL1        0.0320
     17 C         137.9659  141.5362  161.7774 C.3     1  UNL1        0.1156
     18 C         137.9294  142.8962  162.4091 C.3     1  UNL1        0.0320
     19 O         140.2526  137.4728  162.1202 O.3     1  UNL1       -0.4517
     20 C         141.5148  137.9529  161.4673 C.ar    1  UNL1        0.2312
     21 N         142.8056  137.9418  162.2314 N.ar    1  UNL1       -0.1892
     22 C         144.0678  138.4219  161.5784 C.ar    1  UNL1        0.2029
     23 N         144.0392  138.9131  160.1615 N.ar    1  UNL1       -0.2046
     24 C         142.7485  138.9243  159.3974 C.ar    1  UNL1        0.1715
     25 C         141.4863  138.4441  160.0503 C.ar    1  UNL1        0.1098
     26 C         140.3717  138.5716  159.0545 C.ar    1  UNL1        0.1283
     27 N         140.9451  139.1305  157.7861 N.ar    1  UNL1       -0.1619
     28 N         142.4140  139.3485  157.9981 N.ar    1  UNL1       -0.2111
     29 C         143.3791  139.8947  156.9880 C.ar    1  UNL1        0.0949
     30 C         143.9374  138.9983  155.9228 C.ar    1  UNL1        0.0201
     31 C         144.9025  139.5445  154.9127 C.ar    1  UNL1        0.0016
     32 C         145.3092  140.9873  154.9678 C.ar    1  UNL1        0.0010
     33 C         144.7509  141.8837  156.0330 C.ar    1  UNL1        0.0129
     34 C         143.7858  141.3375  157.0430 C.ar    1  UNL1        0.0753
     35 CL        143.2276  142.2340  158.1082 Cl      1  UNL1       -0.0807
@<TRIPOS>BOND
     1    16    17    1
     2    17    18    1
     3    17    15    1
     4    15    14    1
     5     1    14    1
     6     1    19    1
     7    19    20    1
     8    20    21   ar
     9    21    22   ar
    10    22    23   ar
    11    23    24   ar
    12    24    25   ar
    13    25    26   ar
    14    26    27   ar
    15    27    28   ar
    16    28    29    1
    17    29    30   ar
    18    30    31   ar
    19    31    32   ar
    20    32    33   ar
    21    33    34   ar
    22    34    35    1
    23     1     2    1
    24     2     3    2
    25     2     4   am
    26     4     6    1
    27     6     7   ar
    28     7     8   ar
    29     8     9   ar
    30     9    12    1
    31    12    13    3
    32     9    10   ar
    33    10    11   ar
    34    25    20   ar
    35    34    29   ar
    36    11     6   ar
    37    28    24   ar
    38     4     5    1
@<TRIPOS>MOLECULE
*****
 35 38 0 0 0
SMALL
GASTEIGER

@<TRIPOS>ATOM
      1 C         141.8003  139.6589  162.6027 C.3     1  UNL1        0.2722
      2 C         141.7864  139.9396  164.0762 C.2     1  UNL1        0.2701
      3 O         142.9426  139.5138  164.9317 O.2     1  UNL1       -0.2707
      4 N         140.6163  140.6461  164.6941 N.am    1  UNL1       -0.2663
      5 H         139.8575  140.9255  164.1325 H       1  UNL1        0.1564
      6 C         140.6024  140.9267  166.1675 C.ar    1  UNL1        0.1343
      7 C         139.8349  140.0312  167.0943 C.ar    1  UNL1        0.0352
      8 C         139.8209  140.3119  168.5677 C.ar    1  UNL1        0.0147
      9 C         140.5746  141.4881  169.1144 C.ar    1  UNL1        0.0877
     10 C         141.3421  142.3835  168.1875 C.ar    1  UNL1        0.1105
     11 N         141.3560  142.1028  166.7141 N.ar    1  UNL1       -0.2283
     12 C         140.5606  141.7687  170.5878 C.1     1  UNL1        0.1020
     13 N         140.5467  142.0493  172.0613 N.1     1  UNL1       -0.1908
     14 C         141.5613  138.2652  162.1023 C.3     1  UNL1        0.1950
     15 O         140.7431  137.3064  162.9156 O.3     1  UNL1       -0.3519
     16 C         138.8129  137.4939  164.6445 C.3     1  UNL1        0.0320
     17 C         139.3130  137.6256  163.2365 C.3     1  UNL1        0.1156
     18 C         138.3830  138.0765  162.1494 C.3     1  UNL1        0.0320
     19 O         142.0533  140.7721  161.6296 O.3     1  UNL1       -0.4517
     20 C         140.9010  141.5372  161.0492 C.ar    1  UNL1        0.2312
     21 N         139.6737  141.7856  161.8749 N.ar    1  UNL1       -0.1892
     22 C         138.5214  142.5507  161.2945 C.ar    1  UNL1        0.2029
     23 N         138.5965  143.0675  159.8883 N.ar    1  UNL1       -0.2046
     24 C         139.8239  142.8191  159.0626 C.ar    1  UNL1        0.1715
     25 C         140.9761  142.0540  159.6430 C.ar    1  UNL1        0.1098
     26 C         142.0474  141.9649  158.5968 C.ar    1  UNL1        0.1283
     27 N         141.5572  142.6750  157.3698 N.ar    1  UNL1       -0.1619
     28 N         140.1830  143.2029  157.6577 N.ar    1  UNL1       -0.2111
     29 C         139.3195  143.9785  156.7075 C.ar    1  UNL1        0.0949
     30 C         138.1439  143.3168  156.0517 C.ar    1  UNL1        0.0201
     31 C         137.2804  144.0924  155.1016 C.ar    1  UNL1        0.0016
     32 C         137.5925  145.5297  154.8071 C.ar    1  UNL1        0.0010
     33 C         138.7681  146.1914  155.4629 C.ar    1  UNL1        0.0129
     34 C         139.6316  145.4158  156.4131 C.ar    1  UNL1        0.0753
     35 CL        140.8072  146.0775  157.0688 Cl      1  UNL1       -0.0807
@<TRIPOS>BOND
     1    16    17    1
     2    17    18    1
     3    17    15    1
     4    15    14    1
     5     1    14    1
     6     1    19    1
     7    19    20    1
     8    20    21   ar
     9    21    22   ar
    10    22    23   ar
    11    23    24   ar
    12    24    25   ar
    13    25    26   ar
    14    26    27   ar
    15    27    28   ar
    16    28    29    1
    17    29    30   ar
    18    30    31   ar
    19    31    32   ar
    20    32    33   ar
    21    33    34   ar
    22    34    35    1
    23     1     2    1
    24     2     3    2
    25     2     4   am
    26     4     6    1
    27     6     7   ar
    28     7     8   ar
    29     8     9   ar
    30     9    12    1
    31    12    13    3
    32     9    10   ar
    33    10    11   ar
    34    25    20   ar
    35    34    29   ar
    36    11     6   ar
    37    28    24   ar
    38     4     5    1
