@<TRIPOS>MOLECULE
*****
 37 40 0 0 0
SMALL
GASTEIGER

@<TRIPOS>ATOM
      1 C         139.6240  144.9018  163.1032 C.3     1  UNL1        0.0051
      2 C         140.8260  144.1942  163.6551 C.3     1  UNL1        0.0216
      3 C         140.6511  142.9768  164.5138 C.3     1  UNL1        0.0922
      4 N         139.2741  142.4670  164.8206 N.pl3   1  UNL1       -0.2928
      5 C         138.0722  143.1745  164.2687 C.3     1  UNL1        0.0922
      6 C         138.2471  144.3919  163.4100 C.3     1  UNL1        0.0216
      7 C         139.0992  141.2495  165.6793 C.ar    1  UNL1        0.1409
      8 N         138.3996  140.0405  165.1328 N.ar    1  UNL1       -0.2085
      9 C         138.2247  138.8232  165.9916 C.ar    1  UNL1        0.2001
     10 N         138.7495  138.8149  167.3968 N.ar    1  UNL1       -0.2233
     11 C         139.4491  140.0239  167.9433 C.ar    1  UNL1        0.0924
     12 C         140.0673  140.3071  169.2802 C.ar    1  UNL1        0.0308
     13 C         140.6243  141.6995  169.2478 C.ar    1  UNL1        0.0842
     14 S         140.3503  142.2769  167.8908 S.2     1  UNL1       -0.0780
     15 C         139.6239  141.2413  167.0845 C.ar    1  UNL1        0.0788
     16 C         141.3312  142.3928  170.3747 C.2     1  UNL1        0.2488
     17 N         142.5573  143.2120  170.0999 N.am    1  UNL1       -0.3249
     18 O         140.8119  142.2668  171.7763 O.2     1  UNL1       -0.2698
     19 H         142.8981  143.2947  169.1800 H       1  UNL1        0.1453
     20 H         143.0212  143.6670  170.8395 H       1  UNL1        0.1453
     21 C         139.7990  146.1191  162.2445 C.3     1  UNL1        0.0214
     22 C         140.1679  145.9700  160.7982 C.3     1  UNL1        0.0897
     23 C         141.5514  143.8924  160.0776 C.2     1  UNL1        0.2519
     24 O         140.3094  143.0521  160.1155 O.2     1  UNL1       -0.2696
     25 N         141.4807  145.3513  160.4190 N.am    1  UNL1       -0.3005
     26 H         142.2958  145.9028  160.3941 H       1  UNL1        0.1498
     27 C         144.6649  142.2953  158.3980 C.ar    1  UNL1        0.0829
     28 C         145.1039  142.3481  159.8314 C.ar    1  UNL1        0.0117
     29 C         143.9910  142.9528  160.6351 C.ar    1  UNL1        0.0117
     30 C         142.8642  143.2737  159.6984 C.ar    1  UNL1        0.0829
     31 S         143.2807  142.8673  158.3158 S.2     1  UNL1       -0.0779
     32 N         146.5256  142.6183  156.6139 N.am    1  UNL1       -0.3005
     33 C         145.4689  141.7637  157.2488 C.2     1  UNL1        0.2519
     34 O         145.2162  140.3776  156.7342 O.2     1  UNL1       -0.2696
     35 H         146.6915  143.5281  156.9516 H       1  UNL1        0.1498
     36 C         148.8046  141.8632  155.6210 C.3     1  UNL1        0.0230
     37 C         147.3297  142.0867  155.4646 C.3     1  UNL1        0.0898
@<TRIPOS>BOND
     1    36    37    1
     2    37    32    1
     3    32    33   am
     4    33    34    2
     5    33    27    1
     6    27    28   ar
     7    28    29   ar
     8    29    30   ar
     9    30    23    1
    10    23    24    2
    11    23    25   am
    12    25    22    1
    13    22    21    1
    14    21     1    1
    15     1     2    1
    16     2     3    1
    17     3     4    1
    18     4     7    1
    19     7     8   ar
    20     8     9   ar
    21     9    10   ar
    22    10    11   ar
    23    11    12   ar
    24    12    13   ar
    25    13    16    1
    26    16    17   am
    27    16    18    2
    28    13    14   ar
    29    14    15   ar
    30     4     5    1
    31     5     6    1
    32    30    31   ar
    33    31    27   ar
    34     6     1    1
    35    15     7   ar
    36    15    11   ar
    37    32    35    1
    38    25    26    1
    39    17    19    1
    40    17    20    1
@<TRIPOS>MOLECULE
*****
 37 40 0 0 0
SMALL
GASTEIGER

@<TRIPOS>ATOM
      1 C         142.0012  143.3418  163.3474 C.3     1  UNL1        0.0051
      2 C         142.4511  141.9329  163.5981 C.3     1  UNL1        0.0216
      3 C         141.6700  141.0500  164.5257 C.3     1  UNL1        0.0922
      4 N         140.4390  141.5759  165.2025 N.pl3   1  UNL1       -0.2928
      5 C         139.9891  142.9847  164.9518 C.3     1  UNL1        0.0922
      6 C         140.7702  143.8677  164.0242 C.3     1  UNL1        0.0216
      7 C         139.6578  140.6929  166.1300 C.ar    1  UNL1        0.1409
      8 N         138.6700  139.7100  165.5753 N.ar    1  UNL1       -0.2085
      9 C         137.8889  138.8271  166.5028 C.ar    1  UNL1        0.2001
     10 N         138.0957  138.9271  167.9851 N.ar    1  UNL1       -0.2233
     11 C         139.0836  139.9101  168.5399 C.ar    1  UNL1        0.0924
     12 C         139.4983  140.2320  169.9450 C.ar    1  UNL1        0.0308
     13 C         140.5356  141.3139  169.8859 C.ar    1  UNL1        0.0842
     14 S         140.7621  141.6606  168.4442 S.2     1  UNL1       -0.0780
     15 C         139.8647  140.7930  167.6123 C.ar    1  UNL1        0.0788
     16 C         141.2254  141.9392  171.0621 C.2     1  UNL1        0.2488
     17 N         142.6890  142.2596  170.9899 N.am    1  UNL1       -0.3249
     18 O         140.4516  142.2440  172.3104 O.2     1  UNL1       -0.2698
     19 H         143.1969  142.0596  170.1706 H       1  UNL1        0.1453
     20 H         143.1417  142.6700  171.7618 H       1  UNL1        0.1453
     21 C         142.7823  144.2246  162.4199 C.3     1  UNL1        0.0214
     22 C         142.3085  144.4402  161.0132 C.3     1  UNL1        0.0897
     23 C         139.9901  143.5364  160.2658 C.2     1  UNL1        0.2519
     24 O         139.3255  144.7315  160.8824 O.2     1  UNL1       -0.2696
     25 N         141.4815  143.3908  160.3312 N.am    1  UNL1       -0.3005
     26 H         141.9177  142.6064  159.9265 H       1  UNL1        0.1498
     27 C         137.8258  141.3147  157.9323 C.ar    1  UNL1        0.0829
     28 C         137.9558  140.4297  159.1365 C.ar    1  UNL1        0.0117
     29 C         138.7824  141.1543  160.1572 C.ar    1  UNL1        0.0117
     30 C         139.1633  142.4870  159.5839 C.ar    1  UNL1        0.0829
     31 S         138.5721  142.5861  158.2088 S.2     1  UNL1       -0.0779
     32 N         135.9321  141.8456  156.2348 N.am    1  UNL1       -0.3005
     33 C         137.0805  140.9859  156.6729 C.2     1  UNL1        0.2519
     34 O         137.4837  139.7973  155.8514 O.2     1  UNL1       -0.2696
     35 H         135.6675  142.6257  156.7740 H       1  UNL1        0.1498
     36 C         133.9333  140.6954  155.0383 C.3     1  UNL1        0.0230
     37 C         135.1868  141.5168  154.9753 C.3     1  UNL1        0.0898
@<TRIPOS>BOND
     1    36    37    1
     2    37    32    1
     3    32    33   am
     4    33    34    2
     5    33    27    1
     6    27    28   ar
     7    28    29   ar
     8    29    30   ar
     9    30    23    1
    10    23    24    2
    11    23    25   am
    12    25    22    1
    13    22    21    1
    14    21     1    1
    15     1     2    1
    16     2     3    1
    17     3     4    1
    18     4     7    1
    19     7     8   ar
    20     8     9   ar
    21     9    10   ar
    22    10    11   ar
    23    11    12   ar
    24    12    13   ar
    25    13    16    1
    26    16    17   am
    27    16    18    2
    28    13    14   ar
    29    14    15   ar
    30     4     5    1
    31     5     6    1
    32    30    31   ar
    33    31    27   ar
    34     6     1    1
    35    15     7   ar
    36    15    11   ar
    37    32    35    1
    38    25    26    1
    39    17    19    1
    40    17    20    1
@<TRIPOS>MOLECULE
*****
 37 40 0 0 0
SMALL
GASTEIGER

@<TRIPOS>ATOM
      1 C         142.4387  139.1791  161.7408 C.3     1  UNL1        0.0051
      2 C         142.3598  137.9491  162.5958 C.3     1  UNL1        0.0216
      3 C         141.5475  137.9631  163.8568 C.3     1  UNL1        0.0922
      4 N         140.8141  139.2069  164.2627 N.pl3   1  UNL1       -0.2928
      5 C         140.8929  140.4369  163.4078 C.3     1  UNL1        0.0922
      6 C         141.7052  140.4230  162.1468 C.3     1  UNL1        0.0216
      7 C         140.0018  139.2208  165.5237 C.ar    1  UNL1        0.1409
      8 N         138.6042  138.6761  165.5216 N.ar    1  UNL1       -0.2085
      9 C         137.7920  138.6900  166.7825 C.ar    1  UNL1        0.2001
     10 N         138.3773  139.2487  168.0456 N.ar    1  UNL1       -0.2233
     11 C         139.7748  139.7934  168.0477 C.ar    1  UNL1        0.0924
     12 C         140.6127  140.4036  169.1320 C.ar    1  UNL1        0.0308
     13 C         141.9427  140.7668  168.5412 C.ar    1  UNL1        0.0842
     14 S         141.9270  140.3811  167.0917 S.2     1  UNL1       -0.0780
     15 C         140.5871  139.7795  166.7868 C.ar    1  UNL1        0.0788
     16 C         143.0876  141.4039  169.2717 C.2     1  UNL1        0.2488
     17 N         143.6515  140.7501  170.4982 N.am    1  UNL1       -0.3249
     18 O         143.6685  142.6948  168.7755 O.2     1  UNL1       -0.2698
     19 H         143.2702  139.9028  170.8238 H       1  UNL1        0.1453
     20 H         144.4029  141.1682  170.9776 H       1  UNL1        0.1453
     21 C         143.2510  139.1651  160.4799 C.3     1  UNL1        0.0214
     22 C         142.5776  138.9540  159.1563 C.3     1  UNL1        0.0897
     23 C         142.9309  137.1610  157.3096 C.2     1  UNL1        0.2519
     24 O         143.7157  138.1498  156.4996 O.2     1  UNL1       -0.2696
     25 N         142.3618  137.5630  158.6379 N.am    1  UNL1       -0.3005
     26 H         141.8467  136.9140  159.1696 H       1  UNL1        0.1498
     27 C         142.9412  133.3808  156.4286 C.ar    1  UNL1        0.0829
     28 C         141.8247  133.8781  155.5589 C.ar    1  UNL1        0.0117
     29 C         141.6850  135.3547  155.7831 C.ar    1  UNL1        0.0117
     30 C         142.7151  135.7700  156.7913 C.ar    1  UNL1        0.0829
     31 S         143.4915  134.5501  157.1903 S.2     1  UNL1       -0.0779
     32 N         143.7945  131.3823  157.8525 N.am    1  UNL1       -0.3005
     33 C         143.4229  131.9633  156.5205 C.2     1  UNL1        0.2519
     34 O         143.5329  131.1267  155.2803 O.2     1  UNL1       -0.2696
     35 H         143.7223  131.9314  158.6665 H       1  UNL1        0.1498
     36 C         143.2868  128.8396  158.0159 C.3     1  UNL1        0.0230
     37 C         144.2762  129.9647  157.9444 C.3     1  UNL1        0.0898
@<TRIPOS>BOND
     1    36    37    1
     2    37    32    1
     3    32    33   am
     4    33    34    2
     5    33    27    1
     6    27    28   ar
     7    28    29   ar
     8    29    30   ar
     9    30    23    1
    10    23    24    2
    11    23    25   am
    12    25    22    1
    13    22    21    1
    14    21     1    1
    15     1     2    1
    16     2     3    1
    17     3     4    1
    18     4     7    1
    19     7     8   ar
    20     8     9   ar
    21     9    10   ar
    22    10    11   ar
    23    11    12   ar
    24    12    13   ar
    25    13    16    1
    26    16    17   am
    27    16    18    2
    28    13    14   ar
    29    14    15   ar
    30     4     5    1
    31     5     6    1
    32    30    31   ar
    33    31    27   ar
    34     6     1    1
    35    15     7   ar
    36    15    11   ar
    37    32    35    1
    38    25    26    1
    39    17    19    1
    40    17    20    1
@<TRIPOS>MOLECULE
*****
 37 40 0 0 0
SMALL
GASTEIGER

@<TRIPOS>ATOM
      1 C         139.2745  143.4655  164.0988 C.3     1  UNL1        0.0051
      2 C         140.5523  143.8889  164.7608 C.3     1  UNL1        0.0216
      3 C         141.4442  142.8631  165.3949 C.3     1  UNL1        0.0922
      4 N         141.0584  141.4138  165.3672 N.pl3   1  UNL1       -0.2928
      5 C         139.7807  140.9904  164.7053 C.3     1  UNL1        0.0922
      6 C         138.8887  142.0162  164.0711 C.3     1  UNL1        0.0216
      7 C         141.9504  140.3880  166.0014 C.ar    1  UNL1        0.1409
      8 N         142.9917  139.6885  165.1791 N.ar    1  UNL1       -0.2085
      9 C         143.8837  138.6627  165.8133 C.ar    1  UNL1        0.2001
     10 N         143.7342  138.3365  167.2697 N.ar    1  UNL1       -0.2233
     11 C         142.6928  139.0360  168.0920 C.ar    1  UNL1        0.0924
     12 C         142.3145  138.9241  169.5392 C.ar    1  UNL1        0.0308
     13 C         141.1888  139.8807  169.7994 C.ar    1  UNL1        0.0842
     14 S         140.8713  140.5838  168.5130 S.2     1  UNL1       -0.0780
     15 C         141.8009  140.0618  167.4578 C.ar    1  UNL1        0.0788
     16 C         140.5012  140.0962  171.1151 C.2     1  UNL1        0.2488
     17 N         139.5630  139.0555  171.6503 N.am    1  UNL1       -0.3249
     18 O         140.7520  141.3524  171.8954 O.2     1  UNL1       -0.2698
     19 H         139.3984  138.2310  171.1382 H       1  UNL1        0.1453
     20 H         139.1117  139.1969  172.5138 H       1  UNL1        0.1453
     21 C         138.3826  144.4913  163.4647 C.3     1  UNL1        0.0214
     22 C         138.8107  145.1801  162.2029 C.3     1  UNL1        0.0897
     23 C         140.9048  144.3145  160.9318 C.2     1  UNL1        0.2519
     24 O         141.7921  145.0374  161.9015 O.2     1  UNL1       -0.2696
     25 N         139.4142  144.3858  161.0825 N.am    1  UNL1       -0.3005
     26 H         138.8318  143.9114  160.4461 H       1  UNL1        0.1498
     27 C         143.1187  142.3991  158.3831 C.ar    1  UNL1        0.0829
     28 C         141.7550  142.1972  157.7917 C.ar    1  UNL1        0.0117
     29 C         140.7597  142.8902  158.6746 C.ar    1  UNL1        0.0117
     30 C         141.5082  143.5203  159.8115 C.ar    1  UNL1        0.0829
     31 S         142.9662  143.2168  159.6314 S.2     1  UNL1       -0.0779
     32 N         145.4539  142.8301  157.3293 N.am    1  UNL1       -0.3005
     33 C         144.4083  141.8753  157.8244 C.2     1  UNL1        0.2519
     34 O         144.6525  140.3967  157.7607 O.2     1  UNL1       -0.2696
     35 H         145.2937  143.8006  157.3710 H       1  UNL1        0.1498
     36 C         146.9633  142.2819  155.2869 C.3     1  UNL1        0.0230
     37 C         146.7436  142.3062  156.7705 C.3     1  UNL1        0.0898
@<TRIPOS>BOND
     1    36    37    1
     2    37    32    1
     3    32    33   am
     4    33    34    2
     5    33    27    1
     6    27    28   ar
     7    28    29   ar
     8    29    30   ar
     9    30    23    1
    10    23    24    2
    11    23    25   am
    12    25    22    1
    13    22    21    1
    14    21     1    1
    15     1     2    1
    16     2     3    1
    17     3     4    1
    18     4     7    1
    19     7     8   ar
    20     8     9   ar
    21     9    10   ar
    22    10    11   ar
    23    11    12   ar
    24    12    13   ar
    25    13    16    1
    26    16    17   am
    27    16    18    2
    28    13    14   ar
    29    14    15   ar
    30     4     5    1
    31     5     6    1
    32    30    31   ar
    33    31    27   ar
    34     6     1    1
    35    15     7   ar
    36    15    11   ar
    37    32    35    1
    38    25    26    1
    39    17    19    1
    40    17    20    1
@<TRIPOS>MOLECULE
*****
 37 40 0 0 0
SMALL
GASTEIGER

@<TRIPOS>ATOM
      1 C         139.7756  144.0362  163.4586 C.3     1  UNL1        0.0051
      2 C         139.1832  142.6622  163.5655 C.3     1  UNL1        0.0216
      3 C         139.8891  141.6006  164.3557 C.3     1  UNL1        0.0922
      4 N         141.1874  141.9127  165.0390 N.pl3   1  UNL1       -0.2928
      5 C         141.7798  143.2866  164.9321 C.3     1  UNL1        0.0922
      6 C         141.0739  144.3484  164.1419 C.3     1  UNL1        0.0216
      7 C         141.8933  140.8510  165.8292 C.ar    1  UNL1        0.1409
      8 N         142.7720  139.8559  165.1309 N.ar    1  UNL1       -0.2085
      9 C         143.4778  138.7942  165.9212 C.ar    1  UNL1        0.2001
     10 N         143.3050  138.7276  167.4097 N.ar    1  UNL1       -0.2233
     11 C         142.4264  139.7227  168.1080 C.ar    1  UNL1        0.0924
     12 C         142.0671  139.9045  169.5529 C.ar    1  UNL1        0.0308
     13 C         141.1392  141.0785  169.6557 C.ar    1  UNL1        0.0842
     14 S         140.9250  141.6224  168.2743 S.2     1  UNL1       -0.0780
     15 C         141.7205  140.7844  167.3178 C.ar    1  UNL1        0.0788
     16 C         140.5321  141.6146  170.9183 C.2     1  UNL1        0.2488
     17 N         139.8318  142.9410  170.9095 N.am    1  UNL1       -0.3249
     18 O         140.6254  140.8242  172.1898 O.2     1  UNL1       -0.2698
     19 H         139.7705  143.4598  170.0750 H       1  UNL1        0.1453
     20 H         139.4333  143.2929  171.7381 H       1  UNL1        0.1453
     21 C         139.0697  145.0979  162.6684 C.3     1  UNL1        0.0214
     22 C         139.8574  146.0412  161.8084 C.3     1  UNL1        0.0897
     23 C         141.0595  145.2229  159.6554 C.2     1  UNL1        0.2519
     24 O         142.2254  144.7646  160.4805 O.2     1  UNL1       -0.2696
     25 N         139.8756  145.8612  160.3193 N.am    1  UNL1       -0.3005
     26 H         139.1104  146.1620  159.7778 H       1  UNL1        0.1498
     27 C         141.8253  144.9761  155.8582 C.ar    1  UNL1        0.0829
     28 C         140.3857  144.5559  155.8915 C.ar    1  UNL1        0.0117
     29 C         139.9236  144.5972  157.3180 C.ar    1  UNL1        0.0117
     30 C         141.0776  145.0429  158.1664 C.ar    1  UNL1        0.0829
     31 S         142.2529  145.2771  157.2641 S.2     1  UNL1       -0.0779
     32 N         144.0334  144.4187  154.6079 N.am    1  UNL1       -0.3005
     33 C         142.6861  145.0775  154.6341 C.2     1  UNL1        0.2519
     34 O         142.1996  145.8377  153.4360 O.2     1  UNL1       -0.2696
     35 H         144.3527  143.9198  155.3943 H       1  UNL1        0.1498
     36 C         146.3392  144.9015  153.5124 C.3     1  UNL1        0.0230
     37 C         144.8942  144.5201  153.3837 C.3     1  UNL1        0.0898
@<TRIPOS>BOND
     1    36    37    1
     2    37    32    1
     3    32    33   am
     4    33    34    2
     5    33    27    1
     6    27    28   ar
     7    28    29   ar
     8    29    30   ar
     9    30    23    1
    10    23    24    2
    11    23    25   am
    12    25    22    1
    13    22    21    1
    14    21     1    1
    15     1     2    1
    16     2     3    1
    17     3     4    1
    18     4     7    1
    19     7     8   ar
    20     8     9   ar
    21     9    10   ar
    22    10    11   ar
    23    11    12   ar
    24    12    13   ar
    25    13    16    1
    26    16    17   am
    27    16    18    2
    28    13    14   ar
    29    14    15   ar
    30     4     5    1
    31     5     6    1
    32    30    31   ar
    33    31    27   ar
    34     6     1    1
    35    15     7   ar
    36    15    11   ar
    37    32    35    1
    38    25    26    1
    39    17    19    1
    40    17    20    1
@<TRIPOS>MOLECULE
*****
 37 40 0 0 0
SMALL
GASTEIGER

@<TRIPOS>ATOM
      1 C         139.8869  144.6869  162.8218 C.3     1  UNL1        0.0051
      2 C         140.8651  143.5516  162.8878 C.3     1  UNL1        0.0216
      3 C         140.6485  142.4305  163.8604 C.3     1  UNL1        0.0922
      4 N         139.4537  142.4446  164.7672 N.pl3   1  UNL1       -0.2928
      5 C         138.4754  143.5798  164.7012 C.3     1  UNL1        0.0922
      6 C         138.6920  144.7010  163.7285 C.3     1  UNL1        0.0216
      7 C         139.2371  141.3234  165.7399 C.ar    1  UNL1        0.1409
      8 N         138.2533  140.2360  165.4240 N.ar    1  UNL1       -0.2085
      9 C         138.0368  139.1149  166.3967 C.ar    1  UNL1        0.2001
     10 N         138.8040  139.0811  167.6852 N.ar    1  UNL1       -0.2233
     11 C         139.7877  140.1685  168.0011 C.ar    1  UNL1        0.0924
     12 C         140.6822  140.4007  169.1826 C.ar    1  UNL1        0.0308
     13 C         141.4516  141.6653  168.9401 C.ar    1  UNL1        0.0842
     14 S         141.0326  142.2147  167.6087 S.2     1  UNL1       -0.0780
     15 C         140.0042  141.2896  167.0284 C.ar    1  UNL1        0.0788
     16 C         142.4626  142.2736  169.8664 C.2     1  UNL1        0.2488
     17 N         142.1681  142.3785  171.3334 N.am    1  UNL1       -0.3249
     18 O         143.7680  142.7771  169.3256 O.2     1  UNL1       -0.2698
     19 H         141.3113  142.0480  171.6884 H       1  UNL1        0.1453
     20 H         142.8316  142.7777  171.9414 H       1  UNL1        0.1453
     21 C         140.1035  145.8080  161.8491 C.3     1  UNL1        0.0214
     22 C         140.6335  145.5179  160.4762 C.3     1  UNL1        0.0897
     23 C         140.3550  144.3866  158.1540 C.2     1  UNL1        0.2519
     24 O         141.7703  144.7448  157.8098 O.2     1  UNL1       -0.2696
     25 N         139.7866  144.7731  159.4872 N.am    1  UNL1       -0.3005
     26 H         138.8577  144.5379  159.7132 H       1  UNL1        0.1498
     27 C         137.8719  142.1275  156.2056 C.ar    1  UNL1        0.0829
     28 C         138.5377  142.8637  155.0809 C.ar    1  UNL1        0.0117
     29 C         139.5489  143.7996  155.6740 C.ar    1  UNL1        0.0117
     30 C         139.5081  143.6418  157.1651 C.ar    1  UNL1        0.0829
     31 S         138.4717  142.6084  157.4936 S.2     1  UNL1       -0.0779
     32 N         135.3526  141.4973  156.1306 N.am    1  UNL1       -0.3005
     33 C         136.7955  141.0923  156.0666 C.2     1  UNL1        0.2519
     34 O         137.1618  139.6520  155.8635 O.2     1  UNL1       -0.2696
     35 H         135.1122  142.4426  156.2639 H       1  UNL1        0.1498
     36 C         132.8589  140.8830  155.7379 C.3     1  UNL1        0.0230
     37 C         134.2761  140.4620  155.9916 C.3     1  UNL1        0.0898
@<TRIPOS>BOND
     1    36    37    1
     2    37    32    1
     3    32    33   am
     4    33    34    2
     5    33    27    1
     6    27    28   ar
     7    28    29   ar
     8    29    30   ar
     9    30    23    1
    10    23    24    2
    11    23    25   am
    12    25    22    1
    13    22    21    1
    14    21     1    1
    15     1     2    1
    16     2     3    1
    17     3     4    1
    18     4     7    1
    19     7     8   ar
    20     8     9   ar
    21     9    10   ar
    22    10    11   ar
    23    11    12   ar
    24    12    13   ar
    25    13    16    1
    26    16    17   am
    27    16    18    2
    28    13    14   ar
    29    14    15   ar
    30     4     5    1
    31     5     6    1
    32    30    31   ar
    33    31    27   ar
    34     6     1    1
    35    15     7   ar
    36    15    11   ar
    37    32    35    1
    38    25    26    1
    39    17    19    1
    40    17    20    1
@<TRIPOS>MOLECULE
*****
 37 40 0 0 0
SMALL
GASTEIGER

@<TRIPOS>ATOM
      1 C         141.3196  144.4072  163.3182 C.3     1  UNL1        0.0051
      2 C         140.3604  143.2713  163.5176 C.3     1  UNL1        0.0216
      3 C         140.7463  142.1063  164.3801 C.3     1  UNL1        0.0922
      4 N         142.0915  142.0772  165.0432 N.pl3   1  UNL1       -0.2928
      5 C         143.0507  143.2131  164.8438 C.3     1  UNL1        0.0922
      6 C         142.6647  144.3781  163.9813 C.3     1  UNL1        0.0216
      7 C         142.4774  140.9122  165.9057 C.ar    1  UNL1        0.1409
      8 N         142.8356  139.5989  165.2758 N.ar    1  UNL1       -0.2085
      9 C         143.2215  138.4340  166.1384 C.ar    1  UNL1        0.2001
     10 N         143.2493  138.5824  167.6307 N.ar    1  UNL1       -0.2233
     11 C         142.8911  139.8958  168.2606 C.ar    1  UNL1        0.0924
     12 C         142.8289  140.3385  169.6924 C.ar    1  UNL1        0.0308
     13 C         142.4045  141.7770  169.7148 C.ar    1  UNL1        0.0842
     14 S         142.2045  142.2234  168.2969 S.2     1  UNL1       -0.0780
     15 C         142.5052  141.0607  167.3981 C.ar    1  UNL1        0.0788
     16 C         142.2138  142.6210  170.9402 C.2     1  UNL1        0.2488
     17 N         143.1287  143.7803  171.2022 N.am    1  UNL1       -0.3249
     18 O         141.1080  142.3056  171.9034 O.2     1  UNL1       -0.2698
     19 H         143.8545  143.9873  170.5701 H       1  UNL1        0.1453
     20 H         143.0035  144.3343  172.0065 H       1  UNL1        0.1453
     21 C         140.9336  145.5721  162.4557 C.3     1  UNL1        0.0214
     22 C         139.6912  145.5058  161.6178 C.3     1  UNL1        0.0897
     23 C         140.1207  144.5786  159.2291 C.2     1  UNL1        0.2519
     24 O         140.3853  143.2188  159.8044 O.2     1  UNL1       -0.2696
     25 N         139.7737  145.7220  160.1357 N.am    1  UNL1       -0.3005
     26 H         139.6000  146.6145  159.7581 H       1  UNL1        0.1498
     27 C         140.3426  145.8698  155.5754 C.ar    1  UNL1        0.0829
     28 C         140.3174  144.3859  155.3573 C.ar    1  UNL1        0.0117
     29 C         140.2312  143.7216  156.6995 C.ar    1  UNL1        0.0117
     30 C         140.2031  144.7949  157.7471 C.ar    1  UNL1        0.0829
     31 S         140.2720  146.1226  157.0523 S.2     1  UNL1       -0.0779
     32 N         140.1373  148.3517  154.8353 N.am    1  UNL1       -0.3005
     33 C         140.4241  146.9170  154.5046 C.2     1  UNL1        0.2519
     34 O         140.7924  146.5296  153.1031 O.2     1  UNL1       -0.2696
     35 H         139.8956  148.6060  155.7552 H       1  UNL1        0.1498
     36 C         139.4274  150.6666  153.8934 C.3     1  UNL1        0.0230
     37 C         140.2188  149.3990  153.7645 C.3     1  UNL1        0.0898
@<TRIPOS>BOND
     1    36    37    1
     2    37    32    1
     3    32    33   am
     4    33    34    2
     5    33    27    1
     6    27    28   ar
     7    28    29   ar
     8    29    30   ar
     9    30    23    1
    10    23    24    2
    11    23    25   am
    12    25    22    1
    13    22    21    1
    14    21     1    1
    15     1     2    1
    16     2     3    1
    17     3     4    1
    18     4     7    1
    19     7     8   ar
    20     8     9   ar
    21     9    10   ar
    22    10    11   ar
    23    11    12   ar
    24    12    13   ar
    25    13    16    1
    26    16    17   am
    27    16    18    2
    28    13    14   ar
    29    14    15   ar
    30     4     5    1
    31     5     6    1
    32    30    31   ar
    33    31    27   ar
    34     6     1    1
    35    15     7   ar
    36    15    11   ar
    37    32    35    1
    38    25    26    1
    39    17    19    1
    40    17    20    1
@<TRIPOS>MOLECULE
*****
 37 40 0 0 0
SMALL
GASTEIGER

@<TRIPOS>ATOM
      1 C         141.1192  138.4325  158.6706 C.3     1  UNL1        0.0051
      2 C         142.0583  138.4086  159.8401 C.3     1  UNL1        0.0216
      3 C         141.5223  138.5369  161.2351 C.3     1  UNL1        0.0922
      4 N         140.0472  138.6891  161.4608 N.pl3   1  UNL1       -0.2928
      5 C         139.1081  138.7130  160.2914 C.3     1  UNL1        0.0922
      6 C         139.6441  138.5847  158.8963 C.3     1  UNL1        0.0216
      7 C         139.5113  138.8173  162.8559 C.ar    1  UNL1        0.1409
      8 N         139.3864  137.6020  163.7261 N.ar    1  UNL1       -0.2085
      9 C         138.8504  137.7303  165.1211 C.ar    1  UNL1        0.2001
     10 N         138.4393  139.0740  165.6460 N.ar    1  UNL1       -0.2233
     11 C         138.5642  140.2893  164.7759 C.ar    1  UNL1        0.0924
     12 C         138.2414  141.7341  165.0173 C.ar    1  UNL1        0.0308
     13 C         138.5779  142.4988  163.7715 C.ar    1  UNL1        0.0842
     14 S         139.1086  141.5266  162.7600 S.2     1  UNL1       -0.0780
     15 C         139.1002  140.1610  163.3808 C.ar    1  UNL1        0.0788
     16 C         138.4126  143.9763  163.5721 C.2     1  UNL1        0.2488
     17 N         137.7089  144.4946  162.3531 N.am    1  UNL1       -0.3249
     18 O         138.9511  144.9356  164.5919 O.2     1  UNL1       -0.2698
     19 H         137.3554  143.8650  161.6838 H       1  UNL1        0.1453
     20 H         137.6004  145.4643  162.2223 H       1  UNL1        0.1453
     21 C         141.6552  138.3042  157.2755 C.3     1  UNL1        0.0214
     22 C         142.9162  137.5316  157.0247 C.3     1  UNL1        0.0897
     23 C         142.2515  135.2979  155.8763 C.2     1  UNL1        0.2519
     24 O         141.6425  136.0637  154.7393 O.2     1  UNL1       -0.2696
     25 N         142.8883  136.0318  157.0190 N.am    1  UNL1       -0.3005
     26 H         143.2880  135.5292  157.7652 H       1  UNL1        0.1498
     27 C         142.6674  131.4791  156.4325 C.ar    1  UNL1        0.0829
     28 C         141.6941  131.5015  155.2912 C.ar    1  UNL1        0.0117
     29 C         141.4199  132.9348  154.9440 C.ar    1  UNL1        0.0117
     30 C         142.2236  133.7982  155.8706 C.ar    1  UNL1        0.0829
     31 S         142.9946  132.8985  156.7905 S.2     1  UNL1       -0.0779
     32 N         144.1977  130.3870  158.2255 N.am    1  UNL1       -0.3005
     33 C         143.2169  130.2527  157.0986 C.2     1  UNL1        0.2519
     34 O         142.7856  128.8919  156.6379 O.2     1  UNL1       -0.2696
     35 H         144.4808  131.2801  158.5279 H       1  UNL1        0.1498
     36 C         143.8972  128.3851  159.8540 C.3     1  UNL1        0.0230
     37 C         144.7472  129.1605  158.8917 C.3     1  UNL1        0.0898
@<TRIPOS>BOND
     1    36    37    1
     2    37    32    1
     3    32    33   am
     4    33    34    2
     5    33    27    1
     6    27    28   ar
     7    28    29   ar
     8    29    30   ar
     9    30    23    1
    10    23    24    2
    11    23    25   am
    12    25    22    1
    13    22    21    1
    14    21     1    1
    15     1     2    1
    16     2     3    1
    17     3     4    1
    18     4     7    1
    19     7     8   ar
    20     8     9   ar
    21     9    10   ar
    22    10    11   ar
    23    11    12   ar
    24    12    13   ar
    25    13    16    1
    26    16    17   am
    27    16    18    2
    28    13    14   ar
    29    14    15   ar
    30     4     5    1
    31     5     6    1
    32    30    31   ar
    33    31    27   ar
    34     6     1    1
    35    15     7   ar
    36    15    11   ar
    37    32    35    1
    38    25    26    1
    39    17    19    1
    40    17    20    1
@<TRIPOS>MOLECULE
*****
 37 40 0 0 0
SMALL
GASTEIGER

@<TRIPOS>ATOM
      1 C         143.4337  142.8061  163.4926 C.3     1  UNL1        0.0051
      2 C         142.0293  143.3178  163.6185 C.3     1  UNL1        0.0216
      3 C         141.0284  142.5662  164.4451 C.3     1  UNL1        0.0922
      4 N         141.4320  141.3027  165.1458 N.pl3   1  UNL1       -0.2928
      5 C         142.8363  140.7910  165.0199 C.3     1  UNL1        0.0922
      6 C         143.8372  141.5426  164.1932 C.3     1  UNL1        0.0216
      7 C         140.4310  140.5511  165.9725 C.ar    1  UNL1        0.1409
      8 N         139.4763  139.6005  165.3130 N.ar    1  UNL1       -0.2085
      9 C         138.4754  138.8489  166.1397 C.ar    1  UNL1        0.2001
     10 N         138.4294  139.0479  167.6257 N.ar    1  UNL1       -0.2233
     11 C         139.3841  139.9984  168.2851 C.ar    1  UNL1        0.0924
     12 C         139.5739  140.3973  169.7186 C.ar    1  UNL1        0.0308
     13 C         140.6920  141.3955  169.7779 C.ar    1  UNL1        0.0842
     14 S         141.1933  141.6135  168.3811 S.2     1  UNL1       -0.0780
     15 C         140.3850  140.7500  167.4585 C.ar    1  UNL1        0.0788
     16 C         141.2166  142.0592  171.0166 C.2     1  UNL1        0.2488
     17 N         142.5684  142.7091  171.0041 N.am    1  UNL1       -0.3249
     18 O         140.3894  142.0728  172.2679 O.2     1  UNL1       -0.2698
     19 H         143.1113  142.7001  170.1829 H       1  UNL1        0.1453
     20 H         142.9128  143.1447  171.8171 H       1  UNL1        0.1453
     21 C         144.4345  143.5577  162.6660 C.3     1  UNL1        0.0214
     22 C         144.6885  143.1526  161.2442 C.3     1  UNL1        0.0897
     23 C         142.9878  141.8409  159.7823 C.2     1  UNL1        0.2519
     24 O         142.3602  143.1337  159.3524 O.2     1  UNL1       -0.2696
     25 N         144.1519  141.8503  160.7281 N.am    1  UNL1       -0.3005
     26 H         144.5639  141.0018  161.0102 H       1  UNL1        0.1498
     27 C         142.2076  138.4814  158.0018 C.ar    1  UNL1        0.0829
     28 C         141.0439  138.5880  158.9423 C.ar    1  UNL1        0.0117
     29 C         141.1946  139.8596  159.7238 C.ar    1  UNL1        0.0117
     30 C         142.4513  140.5387  159.2662 C.ar    1  UNL1        0.0829
     31 S         143.0774  139.6869  158.2019 S.2     1  UNL1       -0.0779
     32 N         141.3753  136.3684  156.7399 N.am    1  UNL1       -0.3005
     33 C         142.4576  137.3652  157.0315 C.2     1  UNL1        0.2519
     34 O         143.7898  137.2457  156.3527 O.2     1  UNL1       -0.2696
     35 H         140.5008  136.4468  157.1854 H       1  UNL1        0.1498
     36 C         142.3325  134.0092  156.2222 C.3     1  UNL1        0.0230
     37 C         141.6252  135.2522  155.7696 C.3     1  UNL1        0.0898
@<TRIPOS>BOND
     1    36    37    1
     2    37    32    1
     3    32    33   am
     4    33    34    2
     5    33    27    1
     6    27    28   ar
     7    28    29   ar
     8    29    30   ar
     9    30    23    1
    10    23    24    2
    11    23    25   am
    12    25    22    1
    13    22    21    1
    14    21     1    1
    15     1     2    1
    16     2     3    1
    17     3     4    1
    18     4     7    1
    19     7     8   ar
    20     8     9   ar
    21     9    10   ar
    22    10    11   ar
    23    11    12   ar
    24    12    13   ar
    25    13    16    1
    26    16    17   am
    27    16    18    2
    28    13    14   ar
    29    14    15   ar
    30     4     5    1
    31     5     6    1
    32    30    31   ar
    33    31    27   ar
    34     6     1    1
    35    15     7   ar
    36    15    11   ar
    37    32    35    1
    38    25    26    1
    39    17    19    1
    40    17    20    1
