@<TRIPOS>MOLECULE
*****
 32 35 0 0 0
SMALL
GASTEIGER

@<TRIPOS>ATOM
      1 N         139.5372  142.6967  160.5285 N.3     1  UNL1       -0.2673
      2 C         139.1641  143.6064  161.6613 C.3     1  UNL1        0.1035
      3 C         140.2332  144.1986  162.5310 C.3     1  UNL1        0.1470
      4 C         141.3023  144.7909  163.4006 C.3     1  UNL1        0.1035
      5 N         142.7445  144.4734  163.1375 N.3     1  UNL1       -0.2682
      6 C         143.1176  143.5638  162.0046 C.3     1  UNL1        0.1035
      7 C         142.0485  142.9715  161.1350 C.3     1  UNL1        0.1470
      8 C         140.9794  142.3793  160.2653 C.3     1  UNL1        0.1035
      9 O         141.6754  143.8812  162.2678 O.3     1  UNL1       -0.3530
     10 C         138.4681  142.1045  159.6588 C.3     1  UNL1        0.0913
     11 C         138.0760  140.6664  159.8266 C.3     1  UNL1        0.1087
     12 N         137.1990  140.2569  160.9727 N.3     1  UNL1       -0.1780
     13 H         136.4280  140.9238  161.0064 H       1  UNL1        0.1488
     14 S         137.7651  140.1790  162.3596 S.O2    1  UNL1        0.0603
     15 O         138.6239  139.0216  161.9441 O.2     1  UNL1       -0.1530
     16 O         136.9062  141.3365  162.7751 O.2     1  UNL1       -0.1530
     17 C         139.4632  139.9455  166.5203 C.ar    1  UNL1        0.0685
     18 C         139.1079  138.6881  165.7836 C.ar    1  UNL1        0.0116
     19 C         138.5418  138.7659  164.3967 C.ar    1  UNL1        0.0206
     20 C         138.3311  140.1012  163.7465 C.ar    1  UNL1        0.1220
     21 C         138.6864  141.3586  164.4833 C.ar    1  UNL1        0.0206
     22 C         139.2524  141.2807  165.8702 C.ar    1  UNL1        0.0116
     23 N         140.5953  139.7898  169.2942 N.1     1  UNL1       -0.1908
     24 C         140.0292  139.8676  167.9072 C.1     1  UNL1        0.1004
     25 C         143.8136  145.0657  164.0071 C.3     1  UNL1        0.0769
     26 C         144.4878  144.2209  165.0472 C.3     1  UNL1        0.0437
     27 C         144.3513  142.7277  165.0046 C.ar    1  UNL1       -0.0208
     28 C         143.2384  142.0547  165.7519 C.ar    1  UNL1       -0.0042
     29 C         143.1019  140.5615  165.7092 C.ar    1  UNL1       -0.0003
     30 C         144.0783  139.7414  164.9193 C.ar    1  UNL1       -0.0000
     31 C         145.1913  140.4145  164.1720 C.ar    1  UNL1       -0.0003
     32 C         145.3277  141.9076  164.2147 C.ar    1  UNL1       -0.0042
@<TRIPOS>BOND
     1    23    24    3
     2    24    17    1
     3    17    18   ar
     4    18    19   ar
     5    19    20   ar
     6    20    14    1
     7    14    15    2
     8    14    16    2
     9    14    12    1
    10    12    11    1
    11    11    10    1
    12    10     1    1
    13     1     2    1
    14     2     3    1
    15     3     4    1
    16     4     5    1
    17     5    25    1
    18    25    26    1
    19    26    27    1
    20    27    28   ar
    21    28    29   ar
    22    29    30   ar
    23    30    31   ar
    24    31    32   ar
    25     5     6    1
    26     6     7    1
    27     7     8    1
    28     7     9    1
    29    20    21   ar
    30    21    22   ar
    31    22    17   ar
    32     8     1    1
    33     9     3    1
    34    32    27   ar
    35    12    13    1
@<TRIPOS>MOLECULE
*****
 32 35 0 0 0
SMALL
GASTEIGER

@<TRIPOS>ATOM
      1 N         142.7747  140.0785  160.0797 N.3     1  UNL1       -0.2673
      2 C         141.3936  140.3544  159.5637 C.3     1  UNL1        0.1035
      3 C         140.7839  141.7132  159.7423 C.3     1  UNL1        0.1470
      4 C         140.1741  143.0720  159.9209 C.3     1  UNL1        0.1035
      5 N         140.9455  144.1548  160.6155 N.3     1  UNL1       -0.2682
      6 C         142.3267  143.8788  161.1315 C.3     1  UNL1        0.1035
      7 C         142.9364  142.5201  160.9528 C.3     1  UNL1        0.1470
      8 C         143.5461  141.1613  160.7742 C.3     1  UNL1        0.1035
      9 O         141.5553  142.7960  160.4369 O.3     1  UNL1       -0.3530
     10 C         143.3845  138.7197  159.9011 C.3     1  UNL1        0.0913
     11 C         143.4301  137.7607  161.0535 C.3     1  UNL1        0.1087
     12 N         142.1545  137.2706  161.6724 N.3     1  UNL1       -0.1780
     13 H         141.4146  137.4329  160.9894 H       1  UNL1        0.1488
     14 S         141.6797  137.8512  162.9714 S.O2    1  UNL1        0.0603
     15 O         140.3114  137.2896  162.7222 O.2     1  UNL1       -0.1530
     16 O         143.0481  138.4129  163.2205 O.2     1  UNL1       -0.1530
     17 C         140.2551  139.5931  166.8684 C.ar    1  UNL1        0.0685
     18 C         141.7225  139.5419  166.5616 C.ar    1  UNL1        0.0116
     19 C         142.1974  138.9613  165.2626 C.ar    1  UNL1        0.0206
     20 C         141.2049  138.4318  164.2703 C.ar    1  UNL1        0.1220
     21 C         139.7374  138.4830  164.5771 C.ar    1  UNL1        0.0206
     22 C         139.2626  139.0636  165.8761 C.ar    1  UNL1        0.0116
     23 N         139.3054  140.7543  169.4664 N.1     1  UNL1       -0.1908
     24 C         139.7803  140.1737  168.1673 C.1     1  UNL1        0.1004
     25 C         140.3357  145.5136  160.7941 C.3     1  UNL1        0.0769
     26 C         139.7322  145.8974  162.1127 C.3     1  UNL1        0.0437
     27 C         139.4302  144.8420  163.1349 C.ar    1  UNL1       -0.0208
     28 C         140.3924  144.5878  164.2571 C.ar    1  UNL1       -0.0042
     29 C         140.0905  143.5324  165.2794 C.ar    1  UNL1       -0.0003
     30 C         138.8263  142.7312  165.1794 C.ar    1  UNL1       -0.0000
     31 C         137.8641  142.9855  164.0570 C.ar    1  UNL1       -0.0003
     32 C         138.1660  144.0409  163.0348 C.ar    1  UNL1       -0.0042
@<TRIPOS>BOND
     1    23    24    3
     2    24    17    1
     3    17    18   ar
     4    18    19   ar
     5    19    20   ar
     6    20    14    1
     7    14    15    2
     8    14    16    2
     9    14    12    1
    10    12    11    1
    11    11    10    1
    12    10     1    1
    13     1     2    1
    14     2     3    1
    15     3     4    1
    16     4     5    1
    17     5    25    1
    18    25    26    1
    19    26    27    1
    20    27    28   ar
    21    28    29   ar
    22    29    30   ar
    23    30    31   ar
    24    31    32   ar
    25     5     6    1
    26     6     7    1
    27     7     8    1
    28     7     9    1
    29    20    21   ar
    30    21    22   ar
    31    22    17   ar
    32     8     1    1
    33     9     3    1
    34    32    27   ar
    35    12    13    1
@<TRIPOS>MOLECULE
*****
 32 35 0 0 0
SMALL
GASTEIGER

@<TRIPOS>ATOM
      1 N         142.6747  140.0491  160.1236 N.3     1  UNL1       -0.2673
      2 C         143.5048  141.1414  160.7300 C.3     1  UNL1        0.1035
      3 C         142.9241  142.5127  160.9098 C.3     1  UNL1        0.1470
      4 C         142.3435  143.8840  161.0896 C.3     1  UNL1        0.1035
      5 N         140.9328  144.1630  160.6629 N.3     1  UNL1       -0.2682
      6 C         140.1027  143.0706  160.0564 C.3     1  UNL1        0.1035
      7 C         140.6834  141.6993  159.8767 C.3     1  UNL1        0.1470
      8 C         141.2640  140.3280  159.6969 C.3     1  UNL1        0.1035
      9 O         141.5134  142.7916  160.4831 O.3     1  UNL1       -0.3530
     10 C         143.2554  138.6777  159.9438 C.3     1  UNL1        0.0913
     11 C         143.2863  137.7192  161.0972 C.3     1  UNL1        0.1087
     12 N         142.0037  137.2581  161.7237 N.3     1  UNL1       -0.1780
     13 H         141.2635  137.4371  161.0452 H       1  UNL1        0.1488
     14 S         141.5500  137.8492  163.0255 S.O2    1  UNL1        0.0603
     15 O         142.9252  138.4031  163.2533 O.2     1  UNL1       -0.1530
     16 O         140.1747  137.2954  162.7977 O.2     1  UNL1       -0.1530
     17 C         140.1888  139.6227  166.9309 C.ar    1  UNL1        0.0685
     18 C         139.1819  139.0661  165.9685 C.ar    1  UNL1        0.0116
     19 C         139.6356  138.4749  164.6667 C.ar    1  UNL1        0.0206
     20 C         141.0963  138.4404  164.3273 C.ar    1  UNL1        0.1220
     21 C         142.1032  138.9970  165.2897 C.ar    1  UNL1        0.0206
     22 C         141.6495  139.5882  166.5915 C.ar    1  UNL1        0.0116
     23 N         139.2813  140.8051  169.5345 N.1     1  UNL1       -0.1908
     24 C         139.7351  140.2139  168.2326 C.1     1  UNL1        0.1004
     25 C         140.3521  145.5343  160.8427 C.3     1  UNL1        0.0769
     26 C         139.6381  145.8857  162.1143 C.3     1  UNL1        0.0437
     27 C         139.3665  144.8251  163.1396 C.ar    1  UNL1       -0.0208
     28 C         138.1073  144.0136  163.0638 C.ar    1  UNL1       -0.0042
     29 C         137.8357  142.9530  164.0891 C.ar    1  UNL1       -0.0003
     30 C         138.8233  142.7039  165.1903 C.ar    1  UNL1       -0.0000
     31 C         140.0826  143.5155  165.2661 C.ar    1  UNL1       -0.0003
     32 C         140.3542  144.5761  164.2408 C.ar    1  UNL1       -0.0042
@<TRIPOS>BOND
     1    23    24    3
     2    24    17    1
     3    17    18   ar
     4    18    19   ar
     5    19    20   ar
     6    20    14    1
     7    14    15    2
     8    14    16    2
     9    14    12    1
    10    12    11    1
    11    11    10    1
    12    10     1    1
    13     1     2    1
    14     2     3    1
    15     3     4    1
    16     4     5    1
    17     5    25    1
    18    25    26    1
    19    26    27    1
    20    27    28   ar
    21    28    29   ar
    22    29    30   ar
    23    30    31   ar
    24    31    32   ar
    25     5     6    1
    26     6     7    1
    27     7     8    1
    28     7     9    1
    29    20    21   ar
    30    21    22   ar
    31    22    17   ar
    32     8     1    1
    33     9     3    1
    34    32    27   ar
    35    12    13    1
@<TRIPOS>MOLECULE
*****
 32 35 0 0 0
SMALL
GASTEIGER

@<TRIPOS>ATOM
      1 N         139.8712  140.5647  160.1774 N.3     1  UNL1       -0.2673
      2 C         141.0121  139.6027  160.0258 C.3     1  UNL1        0.1035
      3 C         142.3838  139.9860  160.4964 C.3     1  UNL1        0.1470
      4 C         143.7556  140.3692  160.9669 C.3     1  UNL1        0.1035
      5 N         143.9865  141.7144  161.5890 N.3     1  UNL1       -0.2682
      6 C         142.8456  142.6764  161.7406 C.3     1  UNL1        0.1035
      7 C         141.4738  142.2932  161.2700 C.3     1  UNL1        0.1470
      8 C         140.1021  141.9100  160.7995 C.3     1  UNL1        0.1035
      9 O         142.6147  141.3312  161.1185 O.3     1  UNL1       -0.3530
     10 C         138.4994  140.1815  159.7068 C.3     1  UNL1        0.0913
     11 C         137.4630  139.7397  160.6971 C.3     1  UNL1        0.1087
     12 N         137.0304  140.6669  161.7940 N.3     1  UNL1       -0.1780
     13 H         137.2049  141.6159  161.4633 H       1  UNL1        0.1488
     14 S         137.6529  140.5611  163.1546 S.O2    1  UNL1        0.0603
     15 O         138.0151  139.1321  162.8778 O.2     1  UNL1       -0.1530
     16 O         137.2907  141.9902  163.4314 O.2     1  UNL1       -0.1530
     17 C         139.5205  140.2439  167.2364 C.ar    1  UNL1        0.0685
     18 C         138.7816  139.0743  166.6567 C.ar    1  UNL1        0.0116
     19 C         138.1591  139.1800  165.2961 C.ar    1  UNL1        0.0206
     20 C         138.2754  140.4554  164.5151 C.ar    1  UNL1        0.1220
     21 C         139.0144  141.6250  165.0948 C.ar    1  UNL1        0.0206
     22 C         139.6369  141.5192  166.4554 C.ar    1  UNL1        0.0116
     23 N         140.7656  140.0324  169.9576 N.1     1  UNL1       -0.1908
     24 C         140.1431  140.1381  168.5969 C.1     1  UNL1        0.1004
     25 C         145.3582  142.0977  162.0596 C.3     1  UNL1        0.0769
     26 C         145.8104  141.7207  163.4393 C.3     1  UNL1        0.0437
     27 C         144.8721  141.0079  164.3675 C.ar    1  UNL1       -0.0208
     28 C         144.8751  139.5093  164.4316 C.ar    1  UNL1       -0.0042
     29 C         143.9368  138.7965  165.3598 C.ar    1  UNL1       -0.0003
     30 C         142.9955  139.5823  166.2239 C.ar    1  UNL1       -0.0000
     31 C         142.9926  141.0810  166.1597 C.ar    1  UNL1       -0.0003
     32 C         143.9309  141.7937  165.2315 C.ar    1  UNL1       -0.0042
@<TRIPOS>BOND
     1    23    24    3
     2    24    17    1
     3    17    18   ar
     4    18    19   ar
     5    19    20   ar
     6    20    14    1
     7    14    15    2
     8    14    16    2
     9    14    12    1
    10    12    11    1
    11    11    10    1
    12    10     1    1
    13     1     2    1
    14     2     3    1
    15     3     4    1
    16     4     5    1
    17     5    25    1
    18    25    26    1
    19    26    27    1
    20    27    28   ar
    21    28    29   ar
    22    29    30   ar
    23    30    31   ar
    24    31    32   ar
    25     5     6    1
    26     6     7    1
    27     7     8    1
    28     7     9    1
    29    20    21   ar
    30    21    22   ar
    31    22    17   ar
    32     8     1    1
    33     9     3    1
    34    32    27   ar
    35    12    13    1
@<TRIPOS>MOLECULE
*****
 32 35 0 0 0
SMALL
GASTEIGER

@<TRIPOS>ATOM
      1 N         142.5042  141.2642  159.7835 N.3     1  UNL1       -0.2673
      2 C         143.2595  142.0647  160.8025 C.3     1  UNL1        0.1035
      3 C         142.5293  143.0269  161.6918 C.3     1  UNL1        0.1470
      4 C         141.7990  143.9891  162.5812 C.3     1  UNL1        0.1035
      5 N         140.3134  144.1508  162.4514 N.3     1  UNL1       -0.2682
      6 C         139.5581  143.3501  161.4323 C.3     1  UNL1        0.1035
      7 C         140.2883  142.3880  160.5430 C.3     1  UNL1        0.1470
      8 C         141.0186  141.4258  159.6538 C.3     1  UNL1        0.1035
      9 O         141.0437  143.1885  161.5621 O.3     1  UNL1       -0.3530
     10 C         143.2344  140.3019  158.8941 C.3     1  UNL1        0.0913
     11 C         142.6345  138.9621  158.5861 C.3     1  UNL1        0.1087
     12 N         142.8632  137.8065  159.5148 N.3     1  UNL1       -0.1780
     13 H         142.1259  137.1272  159.3268 H       1  UNL1        0.1488
     14 S         142.8797  138.0282  160.9982 S.O2    1  UNL1        0.0603
     15 O         141.3807  138.0813  161.0069 O.2     1  UNL1       -0.1530
     16 O         144.3787  137.9751  160.9894 O.2     1  UNL1       -0.1530
     17 C         142.9291  138.6935  165.4484 C.ar    1  UNL1        0.0685
     18 C         144.0291  139.2510  164.5945 C.ar    1  UNL1        0.0116
     19 C         144.0127  139.0293  163.1110 C.ar    1  UNL1        0.0206
     20 C         142.8962  138.2500  162.4815 C.ar    1  UNL1        0.1220
     21 C         141.7962  137.6925  163.3355 C.ar    1  UNL1        0.0206
     22 C         141.8127  137.9142  164.8189 C.ar    1  UNL1        0.0116
     23 N         142.9621  139.1370  168.4153 N.1     1  UNL1       -0.1908
     24 C         142.9456  138.9152  166.9318 C.1     1  UNL1        0.1004
     25 C         139.5832  145.1130  163.3407 C.3     1  UNL1        0.0769
     26 C         138.7477  144.5991  164.4757 C.3     1  UNL1        0.0437
     27 C         138.9885  143.2227  165.0211 C.ar    1  UNL1       -0.0208
     28 C         138.1019  142.0861  164.6067 C.ar    1  UNL1       -0.0042
     29 C         138.3427  140.7096  165.1520 C.ar    1  UNL1       -0.0003
     30 C         139.4702  140.4699  166.1119 C.ar    1  UNL1       -0.0000
     31 C         140.3568  141.6066  166.5264 C.ar    1  UNL1       -0.0003
     32 C         140.1160  142.9830  165.9810 C.ar    1  UNL1       -0.0042
@<TRIPOS>BOND
     1    23    24    3
     2    24    17    1
     3    17    18   ar
     4    18    19   ar
     5    19    20   ar
     6    20    14    1
     7    14    15    2
     8    14    16    2
     9    14    12    1
    10    12    11    1
    11    11    10    1
    12    10     1    1
    13     1     2    1
    14     2     3    1
    15     3     4    1
    16     4     5    1
    17     5    25    1
    18    25    26    1
    19    26    27    1
    20    27    28   ar
    21    28    29   ar
    22    29    30   ar
    23    30    31   ar
    24    31    32   ar
    25     5     6    1
    26     6     7    1
    27     7     8    1
    28     7     9    1
    29    20    21   ar
    30    21    22   ar
    31    22    17   ar
    32     8     1    1
    33     9     3    1
    34    32    27   ar
    35    12    13    1
@<TRIPOS>MOLECULE
*****
 32 35 0 0 0
SMALL
GASTEIGER

@<TRIPOS>ATOM
      1 N         140.8684  140.0825  159.3534 N.3     1  UNL1       -0.2673
      2 C         141.1463  141.5286  159.0683 C.3     1  UNL1        0.1035
      3 C         140.6130  142.5896  159.9848 C.3     1  UNL1        0.1470
      4 C         140.0798  143.6507  160.9012 C.3     1  UNL1        0.1035
      5 N         139.2686  143.2655  162.1028 N.3     1  UNL1       -0.2682
      6 C         138.9908  141.8193  162.3879 C.3     1  UNL1        0.1035
      7 C         139.5240  140.7583  161.4714 C.3     1  UNL1        0.1470
      8 C         140.0573  139.6973  160.5550 C.3     1  UNL1        0.1035
      9 O         139.8019  142.2044  161.1863 O.3     1  UNL1       -0.3530
     10 C         141.4016  139.0214  158.4370 C.3     1  UNL1        0.0913
     11 C         142.5820  138.1947  158.8533 C.3     1  UNL1        0.1087
     12 N         143.6741  138.8086  159.6783 N.3     1  UNL1       -0.1780
     13 H         144.5316  138.3038  159.4541 H       1  UNL1        0.1488
     14 S         143.5625  138.8298  161.1740 S.O2    1  UNL1        0.0603
     15 O         144.2179  140.1786  161.2037 O.2     1  UNL1       -0.1530
     16 O         142.9072  137.4809  161.1442 O.2     1  UNL1       -0.1530
     17 C         143.2278  138.8932  165.6610 C.ar    1  UNL1        0.0685
     18 C         144.4396  139.4701  164.9911 C.ar    1  UNL1        0.0116
     19 C         144.5512  139.4489  163.4954 C.ar    1  UNL1        0.0206
     20 C         143.4510  138.8509  162.6696 C.ar    1  UNL1        0.1220
     21 C         142.2391  138.2741  163.3396 C.ar    1  UNL1        0.0206
     22 C         142.1276  138.2952  164.8353 C.ar    1  UNL1        0.0116
     23 N         143.0047  138.9355  168.6524 N.1     1  UNL1       -0.1908
     24 C         143.1162  138.9144  167.1567 C.1     1  UNL1        0.1004
     25 C         138.7354  144.3265  163.0192 C.3     1  UNL1        0.0769
     26 C         139.5266  144.7447  164.2231 C.3     1  UNL1        0.0437
     27 C         140.9820  144.3954  164.3224 C.ar    1  UNL1       -0.0208
     28 C         141.4023  143.1116  164.9743 C.ar    1  UNL1       -0.0042
     29 C         142.8577  142.7623  165.0737 C.ar    1  UNL1       -0.0003
     30 C         143.8927  143.6969  164.5211 C.ar    1  UNL1       -0.0000
     31 C         143.4723  144.9808  163.8692 C.ar    1  UNL1       -0.0003
     32 C         142.0170  145.3300  163.7698 C.ar    1  UNL1       -0.0042
@<TRIPOS>BOND
     1    23    24    3
     2    24    17    1
     3    17    18   ar
     4    18    19   ar
     5    19    20   ar
     6    20    14    1
     7    14    15    2
     8    14    16    2
     9    14    12    1
    10    12    11    1
    11    11    10    1
    12    10     1    1
    13     1     2    1
    14     2     3    1
    15     3     4    1
    16     4     5    1
    17     5    25    1
    18    25    26    1
    19    26    27    1
    20    27    28   ar
    21    28    29   ar
    22    29    30   ar
    23    30    31   ar
    24    31    32   ar
    25     5     6    1
    26     6     7    1
    27     7     8    1
    28     7     9    1
    29    20    21   ar
    30    21    22   ar
    31    22    17   ar
    32     8     1    1
    33     9     3    1
    34    32    27   ar
    35    12    13    1
@<TRIPOS>MOLECULE
*****
 32 35 0 0 0
SMALL
GASTEIGER

@<TRIPOS>ATOM
      1 N         139.7049  142.6344  159.6318 N.3     1  UNL1       -0.2673
      2 C         140.7004  141.5127  159.6054 C.3     1  UNL1        0.1035
      3 C         140.4669  140.2832  160.4322 C.3     1  UNL1        0.1470
      4 C         140.2335  139.0535  161.2590 C.3     1  UNL1        0.1035
      5 N         139.0045  138.9457  162.1122 N.3     1  UNL1       -0.2682
      6 C         138.0089  140.0674  162.1385 C.3     1  UNL1        0.1035
      7 C         138.2424  141.2970  161.3117 C.3     1  UNL1        0.1470
      8 C         138.4759  142.5265  160.4849 C.3     1  UNL1        0.1035
      9 O         139.2379  140.1753  161.2854 O.3     1  UNL1       -0.3530
     10 C         139.9384  143.8641  158.8050 C.3     1  UNL1        0.0913
     11 C         140.8901  144.9201  159.2835 C.3     1  UNL1        0.1087
     12 N         140.5219  145.7889  160.4496 N.3     1  UNL1       -0.1780
     13 H         141.2003  146.5501  160.4754 H       1  UNL1        0.1488
     14 S         140.4705  145.2075  161.8313 S.O2    1  UNL1        0.0603
     15 O         139.0740  145.7287  161.9987 O.2     1  UNL1       -0.1530
     16 O         141.8670  144.6863  161.6640 O.2     1  UNL1       -0.1530
     17 C         140.3162  143.4634  165.9767 C.ar    1  UNL1        0.0685
     18 C         141.5250  143.2453  165.1158 C.ar    1  UNL1        0.0116
     19 C         141.5764  143.8267  163.7340 C.ar    1  UNL1        0.0206
     20 C         140.4190  144.6262  163.2131 C.ar    1  UNL1        0.1220
     21 C         139.2102  144.8442  164.0741 C.ar    1  UNL1        0.0206
     22 C         139.1588  144.2629  165.4558 C.ar    1  UNL1        0.0116
     23 N         140.2134  142.3007  168.7403 N.1     1  UNL1       -0.1908
     24 C         140.2648  142.8820  167.3585 C.1     1  UNL1        0.1004
     25 C         138.7710  137.7161  162.9390 C.3     1  UNL1        0.0769
     26 C         138.8855  137.7841  164.4331 C.3     1  UNL1        0.0437
     27 C         140.1755  138.2116  165.0678 C.ar    1  UNL1       -0.0208
     28 C         141.4610  137.5453  164.6761 C.ar    1  UNL1       -0.0042
     29 C         142.7512  137.9728  165.3108 C.ar    1  UNL1       -0.0003
     30 C         142.7558  139.0668  166.3371 C.ar    1  UNL1       -0.0000
     31 C         141.4702  139.7331  166.7287 C.ar    1  UNL1       -0.0003
     32 C         140.1801  139.3056  166.0940 C.ar    1  UNL1       -0.0042
@<TRIPOS>BOND
     1    23    24    3
     2    24    17    1
     3    17    18   ar
     4    18    19   ar
     5    19    20   ar
     6    20    14    1
     7    14    15    2
     8    14    16    2
     9    14    12    1
    10    12    11    1
    11    11    10    1
    12    10     1    1
    13     1     2    1
    14     2     3    1
    15     3     4    1
    16     4     5    1
    17     5    25    1
    18    25    26    1
    19    26    27    1
    20    27    28   ar
    21    28    29   ar
    22    29    30   ar
    23    30    31   ar
    24    31    32   ar
    25     5     6    1
    26     6     7    1
    27     7     8    1
    28     7     9    1
    29    20    21   ar
    30    21    22   ar
    31    22    17   ar
    32     8     1    1
    33     9     3    1
    34    32    27   ar
    35    12    13    1
@<TRIPOS>MOLECULE
*****
 32 35 0 0 0
SMALL
GASTEIGER

@<TRIPOS>ATOM
      1 N         140.6662  141.3237  160.1648 N.3     1  UNL1       -0.2673
      2 C         140.2724  142.5332  160.9597 C.3     1  UNL1        0.1035
      3 C         140.9873  142.8557  162.2383 C.3     1  UNL1        0.1470
      4 C         141.7023  143.1783  163.5169 C.3     1  UNL1        0.1035
      5 N         142.8111  142.2913  164.0005 N.3     1  UNL1       -0.2682
      6 C         143.2049  141.0818  163.2055 C.3     1  UNL1        0.1035
      7 C         142.4899  140.7593  161.9269 C.3     1  UNL1        0.1470
      8 C         141.7749  140.4367  160.6484 C.3     1  UNL1        0.1035
      9 O         142.0961  141.9688  162.7219 O.3     1  UNL1       -0.3530
     10 C         139.9512  141.0012  158.8861 C.3     1  UNL1        0.0913
     11 C         138.4981  140.6301  158.9124 C.3     1  UNL1        0.1087
     12 N         138.0393  139.4519  159.7197 N.3     1  UNL1       -0.1780
     13 H         137.0477  139.3245  159.5175 H       1  UNL1        0.1488
     14 S         138.1783  139.4663  161.2132 S.O2    1  UNL1        0.0603
     15 O         137.3410  140.7091  161.2791 O.2     1  UNL1       -0.1530
     16 O         139.0155  138.2235  161.1472 O.2     1  UNL1       -0.1530
     17 C         138.5950  139.5094  165.6936 C.ar    1  UNL1        0.0685
     18 C         138.8109  138.2350  164.9326 C.ar    1  UNL1        0.0116
     19 C         138.6720  138.2206  163.4390 C.ar    1  UNL1        0.0206
     20 C         138.3172  139.4806  162.7066 C.ar    1  UNL1        0.1220
     21 C         138.1013  140.7551  163.4678 C.ar    1  UNL1        0.0206
     22 C         138.2402  140.7694  164.9612 C.ar    1  UNL1        0.0116
     23 N         138.8730  139.5380  168.6806 N.1     1  UNL1       -0.1908
     24 C         138.7340  139.5237  167.1871 C.1     1  UNL1        0.1004
     25 C         143.5261  142.6138  165.2791 C.3     1  UNL1        0.0769
     26 C         143.3459  141.7351  166.4814 C.3     1  UNL1        0.0437
     27 C         142.5942  142.2432  167.6758 C.ar    1  UNL1       -0.0208
     28 C         141.1320  142.5584  167.5633 C.ar    1  UNL1       -0.0042
     29 C         140.3802  143.0665  168.7577 C.ar    1  UNL1       -0.0003
     30 C         141.0906  143.2593  170.0647 C.ar    1  UNL1       -0.0000
     31 C         142.5528  142.9441  170.1772 C.ar    1  UNL1       -0.0003
     32 C         143.3046  142.4360  168.9828 C.ar    1  UNL1       -0.0042
@<TRIPOS>BOND
     1    23    24    3
     2    24    17    1
     3    17    18   ar
     4    18    19   ar
     5    19    20   ar
     6    20    14    1
     7    14    15    2
     8    14    16    2
     9    14    12    1
    10    12    11    1
    11    11    10    1
    12    10     1    1
    13     1     2    1
    14     2     3    1
    15     3     4    1
    16     4     5    1
    17     5    25    1
    18    25    26    1
    19    26    27    1
    20    27    28   ar
    21    28    29   ar
    22    29    30   ar
    23    30    31   ar
    24    31    32   ar
    25     5     6    1
    26     6     7    1
    27     7     8    1
    28     7     9    1
    29    20    21   ar
    30    21    22   ar
    31    22    17   ar
    32     8     1    1
    33     9     3    1
    34    32    27   ar
    35    12    13    1
@<TRIPOS>MOLECULE
*****
 32 35 0 0 0
SMALL
GASTEIGER

@<TRIPOS>ATOM
      1 N         140.3063  139.4850  159.5335 N.3     1  UNL1       -0.2673
      2 C         141.4053  139.1261  160.4892 C.3     1  UNL1        0.1035
      3 C         141.0712  138.6519  161.8724 C.3     1  UNL1        0.1470
      4 C         140.7371  138.1776  163.2558 C.3     1  UNL1        0.1035
      5 N         139.3040  138.0623  163.6834 N.3     1  UNL1       -0.2682
      6 C         138.2049  138.4213  162.7277 C.3     1  UNL1        0.1035
      7 C         138.5390  138.8955  161.3444 C.3     1  UNL1        0.1470
      8 C         138.8731  139.3697  159.9612 C.3     1  UNL1        0.1035
      9 O         139.6381  138.5366  162.3000 O.3     1  UNL1       -0.3530
     10 C         140.6403  139.9592  158.1502 C.3     1  UNL1        0.0913
     11 C         141.0292  141.3897  157.9212 C.3     1  UNL1        0.1087
     12 N         140.0194  142.4818  158.1159 N.3     1  UNL1       -0.1780
     13 H         140.3462  143.2843  157.5777 H       1  UNL1        0.1488
     14 S         139.7124  142.9821  159.4962 S.O2    1  UNL1        0.0603
     15 O         138.2442  142.8821  159.2059 O.2     1  UNL1       -0.1530
     16 O         141.1806  143.0821  159.7865 O.2     1  UNL1       -0.1530
     17 C         138.7913  144.4830  163.6373 C.ar    1  UNL1        0.0685
     18 C         137.9762  143.3727  163.0435 C.ar    1  UNL1        0.0116
     19 C         138.2832  142.8723  161.6631 C.ar    1  UNL1        0.0206
     20 C         139.4054  143.4824  160.8765 C.ar    1  UNL1        0.1220
     21 C         140.2205  144.5928  161.4705 C.ar    1  UNL1        0.0206
     22 C         139.9135  145.0930  162.8508 C.ar    1  UNL1        0.0116
     23 N         138.1772  145.4836  166.3981 N.1     1  UNL1       -0.1908
     24 C         138.4843  144.9833  165.0177 C.1     1  UNL1        0.1004
     25 C         138.9699  137.5881  165.0667 C.3     1  UNL1        0.0769
     26 C         138.2952  138.5145  166.0346 C.3     1  UNL1        0.0437
     27 C         139.0187  139.7270  166.5408 C.ar    1  UNL1       -0.0208
     28 C         139.3732  139.8365  167.9941 C.ar    1  UNL1       -0.0042
     29 C         140.0967  141.0491  168.5004 C.ar    1  UNL1       -0.0003
     30 C         140.4658  142.1521  167.5532 C.ar    1  UNL1       -0.0000
     31 C         140.1113  142.0425  166.0998 C.ar    1  UNL1       -0.0003
     32 C         139.3878  140.8300  165.5936 C.ar    1  UNL1       -0.0042
@<TRIPOS>BOND
     1    23    24    3
     2    24    17    1
     3    17    18   ar
     4    18    19   ar
     5    19    20   ar
     6    20    14    1
     7    14    15    2
     8    14    16    2
     9    14    12    1
    10    12    11    1
    11    11    10    1
    12    10     1    1
    13     1     2    1
    14     2     3    1
    15     3     4    1
    16     4     5    1
    17     5    25    1
    18    25    26    1
    19    26    27    1
    20    27    28   ar
    21    28    29   ar
    22    29    30   ar
    23    30    31   ar
    24    31    32   ar
    25     5     6    1
    26     6     7    1
    27     7     8    1
    28     7     9    1
    29    20    21   ar
    30    21    22   ar
    31    22    17   ar
    32     8     1    1
    33     9     3    1
    34    32    27   ar
    35    12    13    1
