@<TRIPOS>MOLECULE
*****
 30 34 0 0 0
SMALL
GASTEIGER

@<TRIPOS>ATOM
      1 C         140.9439  142.4579  168.0449 C.3     1  UNL1        0.1226
      2 C         141.6501  141.1611  168.3085 C.3     1  UNL1        0.0557
      3 C         142.2589  140.3941  167.1722 C.ar    1  UNL1       -0.0215
      4 C         142.9651  139.0973  167.4359 C.ar    1  UNL1       -0.0044
      5 C         143.5739  138.3304  166.2996 C.ar    1  UNL1       -0.0003
      6 C         143.4764  138.8602  164.8997 C.ar    1  UNL1       -0.0003
      7 C         142.7702  140.1570  164.6360 C.ar    1  UNL1       -0.0023
      8 C         142.1614  140.9239  165.7723 C.ar    1  UNL1       -0.0019
      9 C         141.4551  142.2208  165.5087 C.3     1  UNL1        0.1111
     10 C         142.0639  141.4538  164.3724 C.3     1  UNL1        0.0328
     11 C         141.9664  141.9836  162.9725 C.3     1  UNL1        0.0187
     12 C         141.2601  143.2805  162.7088 C.3     1  UNL1        0.0578
     13 C         140.6514  144.0474  163.8451 C.3     1  UNL1        0.0187
     14 C         140.7489  143.5176  165.2450 C.3     1  UNL1        0.0328
     15 O         140.8464  142.9877  166.6450 O.3     1  UNL1       -0.3565
     16 N         141.1626  143.8103  161.3089 N.3     1  UNL1       -0.2716
     17 C         140.6260  145.1896  161.0647 C.3     1  UNL1        0.0896
     18 C         140.5286  145.7195  159.6648 C.3     1  UNL1        0.0896
     19 N         140.9677  144.8699  158.5091 N.3     1  UNL1       -0.2716
     20 C         141.5042  143.4907  158.7533 C.3     1  UNL1        0.0896
     21 C         141.6017  142.9609  160.1532 C.3     1  UNL1        0.0896
     22 C         140.8702  145.3998  157.1092 C.3     1  UNL1        0.0576
     23 C         139.8441  146.4403  156.7708 C.3     1  UNL1        0.0160
     24 C         139.7466  146.9702  155.3709 C.3     1  UNL1        0.0014
     25 C         140.6752  146.4594  154.3093 C.3     1  UNL1        0.0001
     26 C         141.7012  145.4189  154.6477 C.3     1  UNL1        0.0014
     27 C         141.7987  144.8891  156.0476 C.3     1  UNL1        0.0160
     28 C         140.3350  143.2249  169.1812 C.3     1  UNL1        0.0680
     29 F         138.7871  141.4432  170.2669 F       1  UNL1       -0.2343
     30 C         139.8446  142.4988  170.3986 C.3     1  UNL1        0.1957
@<TRIPOS>BOND
     1    29    30    1
     2    30    28    1
     3     1    28    1
     4     1     2    1
     5     2     3    1
     6     3     4   ar
     7     4     5   ar
     8     5     6   ar
     9     6     7   ar
    10     7     8   ar
    11     8     9    1
    12     9    10    1
    13    10    11    1
    14    11    12    1
    15    12    16    1
    16    16    17    1
    17    17    18    1
    18    18    19    1
    19    19    22    1
    20    22    23    1
    21    23    24    1
    22    24    25    1
    23    25    26    1
    24    26    27    1
    25    19    20    1
    26    20    21    1
    27    12    13    1
    28    13    14    1
    29     9    15    1
    30    15     1    1
    31     8     3   ar
    32    14     9    1
    33    21    16    1
    34    27    22    1
@<TRIPOS>MOLECULE
*****
 30 34 0 0 0
SMALL
GASTEIGER

@<TRIPOS>ATOM
      1 C         142.2956  141.9623  167.8618 C.3     1  UNL1        0.1226
      2 C         141.2615  140.9717  168.3081 C.3     1  UNL1        0.0557
      3 C         140.1955  140.5192  167.3545 C.ar    1  UNL1       -0.0215
      4 C         139.1614  139.5286  167.8008 C.ar    1  UNL1       -0.0044
      5 C         138.0956  139.0761  166.8472 C.ar    1  UNL1       -0.0003
      6 C         138.0639  139.6143  165.4474 C.ar    1  UNL1       -0.0003
      7 C         139.0981  140.6049  165.0012 C.ar    1  UNL1       -0.0023
      8 C         140.1639  141.0573  165.9547 C.ar    1  UNL1       -0.0019
      9 C         141.1981  142.0480  165.5085 C.3     1  UNL1        0.1111
     10 C         140.1322  141.5955  164.5549 C.3     1  UNL1        0.0328
     11 C         140.1005  142.1336  163.1552 C.3     1  UNL1        0.0187
     12 C         141.1348  143.1243  162.7089 C.3     1  UNL1        0.0578
     13 C         142.2006  143.5767  163.6625 C.3     1  UNL1        0.0187
     14 C         142.2323  143.0386  165.0622 C.3     1  UNL1        0.0328
     15 O         142.2639  142.5004  166.4620 O.3     1  UNL1       -0.3565
     16 N         141.1031  143.6624  161.3091 N.3     1  UNL1       -0.2716
     17 C         141.7858  142.9145  160.2025 C.3     1  UNL1        0.0896
     18 C         141.7542  143.4527  158.8027 C.3     1  UNL1        0.0896
     19 N         141.0398  144.7387  158.5096 N.3     1  UNL1       -0.2716
     20 C         140.3571  145.4865  159.6162 C.3     1  UNL1        0.0896
     21 C         140.3888  144.9484  161.0160 C.3     1  UNL1        0.0896
     22 C         141.0081  145.2769  157.1098 C.3     1  UNL1        0.0576
     23 C         142.0322  144.8274  156.1101 C.3     1  UNL1        0.0160
     24 C         142.0005  145.3655  154.7103 C.3     1  UNL1        0.0014
     25 C         140.9448  146.3532  154.3102 C.3     1  UNL1        0.0001
     26 C         139.9208  146.8026  155.3099 C.3     1  UNL1        0.0014
     27 C         139.9524  146.2645  156.7097 C.3     1  UNL1        0.0160
     28 C         143.3615  142.4147  168.8153 C.3     1  UNL1        0.0680
     29 F         141.8930  143.9255  170.3355 F       1  UNL1       -0.2343
     30 C         142.9856  142.9096  170.1805 C.3     1  UNL1        0.1957
@<TRIPOS>BOND
     1    29    30    1
     2    30    28    1
     3     1    28    1
     4     1     2    1
     5     2     3    1
     6     3     4   ar
     7     4     5   ar
     8     5     6   ar
     9     6     7   ar
    10     7     8   ar
    11     8     9    1
    12     9    10    1
    13    10    11    1
    14    11    12    1
    15    12    16    1
    16    16    17    1
    17    17    18    1
    18    18    19    1
    19    19    22    1
    20    22    23    1
    21    23    24    1
    22    24    25    1
    23    25    26    1
    24    26    27    1
    25    19    20    1
    26    20    21    1
    27    12    13    1
    28    13    14    1
    29     9    15    1
    30    15     1    1
    31     8     3   ar
    32    14     9    1
    33    21    16    1
    34    27    22    1
@<TRIPOS>MOLECULE
*****
 30 34 0 0 0
SMALL
GASTEIGER

@<TRIPOS>ATOM
      1 C         142.4086  141.4752  168.2497 C.3     1  UNL1        0.1226
      2 C         141.0989  140.8232  168.5810 C.3     1  UNL1        0.0557
      3 C         140.2566  140.2345  167.4882 C.ar    1  UNL1       -0.0215
      4 C         138.9470  139.5826  167.8195 C.ar    1  UNL1       -0.0044
      5 C         138.1047  138.9939  166.7268 C.ar    1  UNL1       -0.0003
      6 C         138.5721  139.0571  165.3029 C.ar    1  UNL1       -0.0003
      7 C         139.8818  139.7090  164.9716 C.ar    1  UNL1       -0.0023
      8 C         140.7240  140.2977  166.0643 C.ar    1  UNL1       -0.0019
      9 C         142.0338  140.9497  165.7331 C.3     1  UNL1        0.1111
     10 C         141.1914  140.3609  164.6404 C.3     1  UNL1        0.0328
     11 C         141.6589  140.4242  163.2165 C.3     1  UNL1        0.0187
     12 C         142.9686  141.0761  162.8853 C.3     1  UNL1        0.0578
     13 C         143.8108  141.6648  163.9780 C.3     1  UNL1        0.0187
     14 C         143.3434  141.6016  165.4019 C.3     1  UNL1        0.0328
     15 O         142.8760  141.5384  166.8258 O.3     1  UNL1       -0.3565
     16 N         143.4360  141.1394  161.4614 N.3     1  UNL1       -0.2716
     17 C         143.3029  139.9371  160.5742 C.3     1  UNL1        0.0896
     18 C         143.7703  140.0003  159.1503 C.3     1  UNL1        0.0896
     19 N         144.3708  141.2658  158.6136 N.3     1  UNL1       -0.2716
     20 C         144.5039  142.4680  159.5007 C.3     1  UNL1        0.0896
     21 C         144.0365  142.4047  160.9246 C.3     1  UNL1        0.0896
     22 C         144.8382  141.3290  157.1896 C.3     1  UNL1        0.0576
     23 C         144.0985  140.5767  156.1234 C.3     1  UNL1        0.0160
     24 C         144.5659  140.6399  154.6994 C.3     1  UNL1        0.0014
     25 C         145.7730  141.4555  154.3418 C.3     1  UNL1        0.0001
     26 C         146.5127  142.2078  155.4081 C.3     1  UNL1        0.0014
     27 C         146.0452  142.1446  156.8320 C.3     1  UNL1        0.0160
     28 C         143.2509  142.0639  169.3424 C.3     1  UNL1        0.0680
     29 F         141.4760  143.8717  169.9178 F       1  UNL1       -0.2343
     30 C         142.6438  143.0223  170.3237 C.3     1  UNL1        0.1957
@<TRIPOS>BOND
     1    29    30    1
     2    30    28    1
     3     1    28    1
     4     1     2    1
     5     2     3    1
     6     3     4   ar
     7     4     5   ar
     8     5     6   ar
     9     6     7   ar
    10     7     8   ar
    11     8     9    1
    12     9    10    1
    13    10    11    1
    14    11    12    1
    15    12    16    1
    16    16    17    1
    17    17    18    1
    18    18    19    1
    19    19    22    1
    20    22    23    1
    21    23    24    1
    22    24    25    1
    23    25    26    1
    24    26    27    1
    25    19    20    1
    26    20    21    1
    27    12    13    1
    28    13    14    1
    29     9    15    1
    30    15     1    1
    31     8     3   ar
    32    14     9    1
    33    21    16    1
    34    27    22    1
@<TRIPOS>MOLECULE
*****
 30 34 0 0 0
SMALL
GASTEIGER

@<TRIPOS>ATOM
      1 C         137.5218  139.1174  169.6770 C.3     1  UNL1        0.1226
      2 C         138.2782  140.1437  170.4672 C.3     1  UNL1        0.0557
      3 C         139.3700  140.9382  169.8139 C.ar    1  UNL1       -0.0215
      4 C         140.1265  141.9645  170.6041 C.ar    1  UNL1       -0.0044
      5 C         141.2182  142.7589  169.9508 C.ar    1  UNL1       -0.0003
      6 C         141.5536  142.5271  168.5073 C.ar    1  UNL1       -0.0003
      7 C         140.7971  141.5008  167.7170 C.ar    1  UNL1       -0.0023
      8 C         139.7053  140.7064  168.3703 C.ar    1  UNL1       -0.0019
      9 C         138.9488  139.6800  167.5801 C.3     1  UNL1        0.1111
     10 C         140.0407  140.4746  166.9268 C.3     1  UNL1        0.0328
     11 C         140.3760  140.2427  165.4832 C.3     1  UNL1        0.0187
     12 C         139.6195  139.2164  164.6930 C.3     1  UNL1        0.0578
     13 C         138.5277  138.4220  165.3463 C.3     1  UNL1        0.0187
     14 C         138.1924  138.6538  166.7899 C.3     1  UNL1        0.0328
     15 O         137.8571  138.8856  168.2334 O.3     1  UNL1       -0.3565
     16 N         139.9548  138.9846  163.2495 N.3     1  UNL1       -0.2716
     17 C         138.9352  138.3794  162.3305 C.3     1  UNL1        0.0896
     18 C         139.2705  138.1476  160.8869 C.3     1  UNL1        0.0896
     19 N         140.6254  138.5210  160.3624 N.3     1  UNL1       -0.2716
     20 C         141.6448  139.1261  161.2813 C.3     1  UNL1        0.0896
     21 C         141.3095  139.3579  162.7249 C.3     1  UNL1        0.0896
     22 C         140.9607  138.2891  158.9188 C.3     1  UNL1        0.0576
     23 C         139.8638  138.1938  157.9000 C.3     1  UNL1        0.0160
     24 C         140.1991  137.9620  156.4565 C.3     1  UNL1        0.0014
     25 C         141.6313  137.8255  156.0317 C.3     1  UNL1        0.0001
     26 C         142.7281  137.9209  157.0505 C.3     1  UNL1        0.0014
     27 C         142.3928  138.1527  158.4941 C.3     1  UNL1        0.0160
     28 C         136.4299  138.3229  170.3303 C.3     1  UNL1        0.0680
     29 F         134.9039  137.8726  172.3840 F       1  UNL1       -0.2343
     30 C         135.8975  138.7395  171.6693 C.3     1  UNL1        0.1957
@<TRIPOS>BOND
     1    29    30    1
     2    30    28    1
     3     1    28    1
     4     1     2    1
     5     2     3    1
     6     3     4   ar
     7     4     5   ar
     8     5     6   ar
     9     6     7   ar
    10     7     8   ar
    11     8     9    1
    12     9    10    1
    13    10    11    1
    14    11    12    1
    15    12    16    1
    16    16    17    1
    17    17    18    1
    18    18    19    1
    19    19    22    1
    20    22    23    1
    21    23    24    1
    22    24    25    1
    23    25    26    1
    24    26    27    1
    25    19    20    1
    26    20    21    1
    27    12    13    1
    28    13    14    1
    29     9    15    1
    30    15     1    1
    31     8     3   ar
    32    14     9    1
    33    21    16    1
    34    27    22    1
@<TRIPOS>MOLECULE
*****
 30 34 0 0 0
SMALL
GASTEIGER

@<TRIPOS>ATOM
      1 C         140.5753  143.0820  164.6006 C.3     1  UNL1        0.1226
      2 C         141.1467  142.4751  165.8476 C.3     1  UNL1        0.0557
      3 C         141.7492  141.1020  165.8054 C.ar    1  UNL1       -0.0215
      4 C         142.3206  140.4950  167.0524 C.ar    1  UNL1       -0.0044
      5 C         142.9229  139.1220  167.0102 C.ar    1  UNL1       -0.0003
      6 C         142.9539  138.3559  165.7210 C.ar    1  UNL1       -0.0003
      7 C         142.3825  138.9628  164.4740 C.ar    1  UNL1       -0.0023
      8 C         141.7801  140.3358  164.5162 C.ar    1  UNL1       -0.0019
      9 C         141.2087  140.9428  163.2691 C.3     1  UNL1        0.1111
     10 C         141.8111  139.5697  163.2270 C.3     1  UNL1        0.0328
     11 C         141.8421  138.8036  161.9378 C.3     1  UNL1        0.0187
     12 C         141.2706  139.4106  160.6907 C.3     1  UNL1        0.0578
     13 C         140.6683  140.7836  160.7329 C.3     1  UNL1        0.0187
     14 C         140.6373  141.5497  162.0221 C.3     1  UNL1        0.0328
     15 O         140.6063  142.3159  163.3113 O.3     1  UNL1       -0.3565
     16 N         141.3016  138.6444  159.4015 N.3     1  UNL1       -0.2716
     17 C         142.5844  138.0301  158.9247 C.3     1  UNL1        0.0896
     18 C         142.6154  137.2640  157.6355 C.3     1  UNL1        0.0896
     19 N         141.3636  137.1122  156.8230 N.3     1  UNL1       -0.2716
     20 C         140.0809  137.7265  157.2998 C.3     1  UNL1        0.0896
     21 C         140.0499  138.4926  158.5890 C.3     1  UNL1        0.0896
     22 C         141.3946  136.3460  155.5338 C.3     1  UNL1        0.0576
     23 C         142.3601  135.2115  155.3586 C.3     1  UNL1        0.0160
     24 C         142.3911  134.4454  154.0694 C.3     1  UNL1        0.0014
     25 C         141.4565  134.8138  152.9554 C.3     1  UNL1        0.0001
     26 C         140.4911  135.9483  153.1306 C.3     1  UNL1        0.0014
     27 C         140.4601  136.7144  154.4198 C.3     1  UNL1        0.0160
     28 C         139.9729  144.4551  164.6427 C.3     1  UNL1        0.0680
     29 F         138.2978  145.5800  166.2792 F       1  UNL1       -0.2343
     30 C         138.5702  144.6438  165.1394 C.3     1  UNL1        0.1957
@<TRIPOS>BOND
     1    29    30    1
     2    30    28    1
     3     1    28    1
     4     1     2    1
     5     2     3    1
     6     3     4   ar
     7     4     5   ar
     8     5     6   ar
     9     6     7   ar
    10     7     8   ar
    11     8     9    1
    12     9    10    1
    13    10    11    1
    14    11    12    1
    15    12    16    1
    16    16    17    1
    17    17    18    1
    18    18    19    1
    19    19    22    1
    20    22    23    1
    21    23    24    1
    22    24    25    1
    23    25    26    1
    24    26    27    1
    25    19    20    1
    26    20    21    1
    27    12    13    1
    28    13    14    1
    29     9    15    1
    30    15     1    1
    31     8     3   ar
    32    14     9    1
    33    21    16    1
    34    27    22    1
@<TRIPOS>MOLECULE
*****
 30 34 0 0 0
SMALL
GASTEIGER

@<TRIPOS>ATOM
      1 C         138.5344  142.2935  164.1751 C.3     1  UNL1        0.1226
      2 C         138.3264  140.9972  164.9005 C.3     1  UNL1        0.0557
      3 C         139.1005  139.7781  164.4946 C.ar    1  UNL1       -0.0215
      4 C         138.8926  138.4817  165.2199 C.ar    1  UNL1       -0.0044
      5 C         139.6667  137.2627  164.8140 C.ar    1  UNL1       -0.0003
      6 C         140.6487  137.3400  163.6828 C.ar    1  UNL1       -0.0003
      7 C         140.8567  138.6364  162.9575 C.ar    1  UNL1       -0.0023
      8 C         140.0826  139.8554  163.3634 C.ar    1  UNL1       -0.0019
      9 C         140.2906  141.1519  162.6381 C.3     1  UNL1        0.1111
     10 C         141.0647  139.9328  162.2322 C.3     1  UNL1        0.0328
     11 C         142.0467  140.0101  161.1010 C.3     1  UNL1        0.0187
     12 C         142.2547  141.3066  160.3757 C.3     1  UNL1        0.0578
     13 C         141.4806  142.5256  160.7816 C.3     1  UNL1        0.0187
     14 C         140.4985  142.4482  161.9128 C.3     1  UNL1        0.0328
     15 O         139.5165  142.3709  163.0439 O.3     1  UNL1       -0.3565
     16 N         143.2367  141.3840  159.2445 N.3     1  UNL1       -0.2716
     17 C         144.3179  142.4236  159.2598 C.3     1  UNL1        0.0896
     18 C         145.3000  142.5010  158.1286 C.3     1  UNL1        0.0896
     19 N         145.2008  141.5387  156.9821 N.3     1  UNL1       -0.2716
     20 C         144.1196  140.4991  156.9669 C.3     1  UNL1        0.0896
     21 C         143.1376  140.4218  158.0981 C.3     1  UNL1        0.0896
     22 C         146.1829  141.6161  155.8509 C.3     1  UNL1        0.0576
     23 C         147.5470  142.1962  156.0804 C.3     1  UNL1        0.0160
     24 C         148.5291  142.2736  154.9492 C.3     1  UNL1        0.0014
     25 C         148.1470  141.7708  153.5886 C.3     1  UNL1        0.0001
     26 C         146.7829  141.1907  153.3592 C.3     1  UNL1        0.0014
     27 C         145.8008  141.1133  154.4904 C.3     1  UNL1        0.0160
     28 C         137.7603  143.5126  164.5810 C.3     1  UNL1        0.0680
     29 F         137.9892  145.5277  166.2047 F       1  UNL1       -0.2343
     30 C         138.4857  144.7490  165.0228 C.3     1  UNL1        0.1957
@<TRIPOS>BOND
     1    29    30    1
     2    30    28    1
     3     1    28    1
     4     1     2    1
     5     2     3    1
     6     3     4   ar
     7     4     5   ar
     8     5     6   ar
     9     6     7   ar
    10     7     8   ar
    11     8     9    1
    12     9    10    1
    13    10    11    1
    14    11    12    1
    15    12    16    1
    16    16    17    1
    17    17    18    1
    18    18    19    1
    19    19    22    1
    20    22    23    1
    21    23    24    1
    22    24    25    1
    23    25    26    1
    24    26    27    1
    25    19    20    1
    26    20    21    1
    27    12    13    1
    28    13    14    1
    29     9    15    1
    30    15     1    1
    31     8     3   ar
    32    14     9    1
    33    21    16    1
    34    27    22    1
@<TRIPOS>MOLECULE
*****
 30 34 0 0 0
SMALL
GASTEIGER

@<TRIPOS>ATOM
      1 C         141.6745  142.0938  168.3659 C.3     1  UNL1        0.1226
      2 C         140.5941  141.1175  168.7259 C.3     1  UNL1        0.0557
      3 C         139.7906  140.4561  167.6456 C.ar    1  UNL1       -0.0215
      4 C         138.7102  139.4798  168.0055 C.ar    1  UNL1       -0.0044
      5 C         137.9067  138.8185  166.9252 C.ar    1  UNL1       -0.0003
      6 C         138.1836  139.1335  165.4851 C.ar    1  UNL1       -0.0003
      7 C         139.2639  140.1098  165.1251 C.ar    1  UNL1       -0.0023
      8 C         140.0674  140.7711  166.2054 C.ar    1  UNL1       -0.0019
      9 C         141.1479  141.7474  165.8455 C.3     1  UNL1        0.1111
     10 C         140.3443  141.0860  164.7652 C.3     1  UNL1        0.0328
     11 C         140.6212  141.4010  163.3250 C.3     1  UNL1        0.0187
     12 C         141.7017  142.3773  162.9651 C.3     1  UNL1        0.0578
     13 C         142.5052  143.0386  164.0454 C.3     1  UNL1        0.0187
     14 C         142.2283  142.7237  165.4856 C.3     1  UNL1        0.0328
     15 O         141.9514  142.4087  166.9258 O.3     1  UNL1       -0.3565
     16 N         141.9786  142.6923  161.5249 N.3     1  UNL1       -0.2716
     17 C         140.9312  143.3677  160.6901 C.3     1  UNL1        0.0896
     18 C         141.2081  143.6827  159.2499 C.3     1  UNL1        0.0896
     19 N         142.5324  143.3222  158.6446 N.3     1  UNL1       -0.2716
     20 C         143.5797  142.6468  159.4794 C.3     1  UNL1        0.0896
     21 C         143.3028  142.3319  160.9196 C.3     1  UNL1        0.0896
     22 C         142.8093  143.6372  157.2044 C.3     1  UNL1        0.0576
     23 C         143.7425  142.7695  156.4129 C.3     1  UNL1        0.0160
     24 C         144.0193  143.0844  154.9727 C.3     1  UNL1        0.0014
     25 C         143.3631  144.2671  154.3240 C.3     1  UNL1        0.0001
     26 C         142.4299  145.1347  155.1155 C.3     1  UNL1        0.0014
     27 C         142.1531  144.8197  156.5557 C.3     1  UNL1        0.0160
     28 C         142.4781  142.7551  169.4462 C.3     1  UNL1        0.0680
     29 F         145.0328  142.7369  169.9184 F       1  UNL1       -0.2343
     30 C         143.6912  142.0715  170.0038 C.3     1  UNL1        0.1957
@<TRIPOS>BOND
     1    29    30    1
     2    30    28    1
     3     1    28    1
     4     1     2    1
     5     2     3    1
     6     3     4   ar
     7     4     5   ar
     8     5     6   ar
     9     6     7   ar
    10     7     8   ar
    11     8     9    1
    12     9    10    1
    13    10    11    1
    14    11    12    1
    15    12    16    1
    16    16    17    1
    17    17    18    1
    18    18    19    1
    19    19    22    1
    20    22    23    1
    21    23    24    1
    22    24    25    1
    23    25    26    1
    24    26    27    1
    25    19    20    1
    26    20    21    1
    27    12    13    1
    28    13    14    1
    29     9    15    1
    30    15     1    1
    31     8     3   ar
    32    14     9    1
    33    21    16    1
    34    27    22    1
@<TRIPOS>MOLECULE
*****
 30 34 0 0 0
SMALL
GASTEIGER

@<TRIPOS>ATOM
      1 C         138.8912  139.6966  166.7110 C.3     1  UNL1        0.1226
      2 C         139.9699  139.9554  167.7206 C.3     1  UNL1        0.0557
      3 C         141.0959  140.8905  167.3921 C.ar    1  UNL1       -0.0215
      4 C         142.1746  141.1494  168.4017 C.ar    1  UNL1       -0.0044
      5 C         143.3005  142.0844  168.0733 C.ar    1  UNL1       -0.0003
      6 C         143.3477  142.7607  166.7352 C.ar    1  UNL1       -0.0003
      7 C         142.2690  142.5018  165.7256 C.ar    1  UNL1       -0.0023
      8 C         141.1431  141.5668  166.0540 C.ar    1  UNL1       -0.0019
      9 C         140.0643  141.3079  165.0444 C.3     1  UNL1        0.1111
     10 C         141.1903  142.2430  164.7160 C.3     1  UNL1        0.0328
     11 C         141.2375  142.9192  163.3779 C.3     1  UNL1        0.0187
     12 C         140.1587  142.6603  162.3682 C.3     1  UNL1        0.0578
     13 C         139.0328  141.7253  162.6967 C.3     1  UNL1        0.0187
     14 C         138.9856  141.0491  164.0348 C.3     1  UNL1        0.0328
     15 O         138.9384  140.3728  165.3729 O.3     1  UNL1       -0.3565
     16 N         140.2059  143.3365  161.0301 N.3     1  UNL1       -0.2716
     17 C         140.3044  144.8311  160.9482 C.3     1  UNL1        0.0896
     18 C         140.3516  145.5073  159.6101 C.3     1  UNL1        0.0896
     19 N         140.3003  144.6890  158.3539 N.3     1  UNL1       -0.2716
     20 C         140.2019  143.1945  158.4360 C.3     1  UNL1        0.0896
     21 C         140.1547  142.5183  159.7741 C.3     1  UNL1        0.0896
     22 C         140.3476  145.3652  157.0158 C.3     1  UNL1        0.0576
     23 C         141.1429  144.7599  155.8973 C.3     1  UNL1        0.0160
     24 C         141.1901  145.4361  154.5592 C.3     1  UNL1        0.0014
     25 C         140.4420  146.7176  154.3397 C.3     1  UNL1        0.0001
     26 C         139.6467  147.3229  155.4582 C.3     1  UNL1        0.0014
     27 C         139.5995  146.6466  156.7963 C.3     1  UNL1        0.0160
     28 C         137.7652  138.7615  167.0395 C.3     1  UNL1        0.0680
     29 F         137.3485  136.2147  167.3393 F       1  UNL1       -0.2343
     30 C         137.7560  137.3715  166.4757 C.3     1  UNL1        0.1957
@<TRIPOS>BOND
     1    29    30    1
     2    30    28    1
     3     1    28    1
     4     1     2    1
     5     2     3    1
     6     3     4   ar
     7     4     5   ar
     8     5     6   ar
     9     6     7   ar
    10     7     8   ar
    11     8     9    1
    12     9    10    1
    13    10    11    1
    14    11    12    1
    15    12    16    1
    16    16    17    1
    17    17    18    1
    18    18    19    1
    19    19    22    1
    20    22    23    1
    21    23    24    1
    22    24    25    1
    23    25    26    1
    24    26    27    1
    25    19    20    1
    26    20    21    1
    27    12    13    1
    28    13    14    1
    29     9    15    1
    30    15     1    1
    31     8     3   ar
    32    14     9    1
    33    21    16    1
    34    27    22    1
@<TRIPOS>MOLECULE
*****
 30 34 0 0 0
SMALL
GASTEIGER

@<TRIPOS>ATOM
      1 C         141.9341  141.7796  165.8689 C.3     1  UNL1        0.1226
      2 C         140.8682  142.8176  166.0599 C.3     1  UNL1        0.0557
      3 C         139.8625  143.0682  164.9756 C.ar    1  UNL1       -0.0215
      4 C         138.7966  144.1061  165.1666 C.ar    1  UNL1       -0.0044
      5 C         137.7909  144.3567  164.0823 C.ar    1  UNL1       -0.0003
      6 C         137.8511  143.5693  162.8070 C.ar    1  UNL1       -0.0003
      7 C         138.9170  142.5314  162.6160 C.ar    1  UNL1       -0.0023
      8 C         139.9227  142.2808  163.7003 C.ar    1  UNL1       -0.0019
      9 C         140.9887  141.2429  163.5093 C.3     1  UNL1        0.1111
     10 C         139.9829  141.4935  162.4249 C.3     1  UNL1        0.0328
     11 C         140.0431  140.7062  161.1496 C.3     1  UNL1        0.0187
     12 C         141.1091  139.6682  160.9586 C.3     1  UNL1        0.0578
     13 C         142.1148  139.4176  162.0429 C.3     1  UNL1        0.0187
     14 C         142.0546  140.2050  163.3183 C.3     1  UNL1        0.0328
     15 O         141.9943  140.9923  164.5936 O.3     1  UNL1       -0.3565
     16 N         141.1693  138.8809  159.6833 N.3     1  UNL1       -0.2716
     17 C         142.4689  138.2834  159.2314 C.3     1  UNL1        0.0896
     18 C         142.5291  137.4960  157.9561 C.3     1  UNL1        0.0896
     19 N         141.2898  137.3062  157.1326 N.3     1  UNL1       -0.2716
     20 C         139.9902  137.9036  157.5845 C.3     1  UNL1        0.0896
     21 C         139.9300  138.6910  158.8599 C.3     1  UNL1        0.0896
     22 C         141.3500  136.5188  155.8573 C.3     1  UNL1        0.0576
     23 C         142.1558  135.2552  155.7933 C.3     1  UNL1        0.0160
     24 C         142.2161  134.4679  154.5180 C.3     1  UNL1        0.0014
     25 C         141.4704  134.9441  153.3066 C.3     1  UNL1        0.0001
     26 C         140.6646  136.2077  153.3707 C.3     1  UNL1        0.0014
     27 C         140.6044  136.9950  154.6460 C.3     1  UNL1        0.0160
     28 C         142.9399  141.5290  166.9533 C.3     1  UNL1        0.0680
     29 F         143.9984  142.5473  169.0962 F       1  UNL1       -0.2343
     30 C         142.7847  142.1945  168.2885 C.3     1  UNL1        0.1957
@<TRIPOS>BOND
     1    29    30    1
     2    30    28    1
     3     1    28    1
     4     1     2    1
     5     2     3    1
     6     3     4   ar
     7     4     5   ar
     8     5     6   ar
     9     6     7   ar
    10     7     8   ar
    11     8     9    1
    12     9    10    1
    13    10    11    1
    14    11    12    1
    15    12    16    1
    16    16    17    1
    17    17    18    1
    18    18    19    1
    19    19    22    1
    20    22    23    1
    21    23    24    1
    22    24    25    1
    23    25    26    1
    24    26    27    1
    25    19    20    1
    26    20    21    1
    27    12    13    1
    28    13    14    1
    29     9    15    1
    30    15     1    1
    31     8     3   ar
    32    14     9    1
    33    21    16    1
    34    27    22    1
