@<TRIPOS>MOLECULE
*****
 41 47 0 0 0
SMALL
GASTEIGER

@<TRIPOS>ATOM
      1 C         142.3033  142.7293  160.2441 C.3     1  UNL1        0.1707
      2 N         141.8011  143.3415  158.9702 N.3     1  UNL1       -0.2797
      3 C         140.6129  144.2567  158.9954 C.3     1  UNL1        0.1167
      4 C         139.9269  144.5596  160.2945 C.3     1  UNL1        0.0511
      5 C         140.4291  143.9473  161.5684 C.2     1  UNL1       -0.0037
      6 C         141.6173  143.0322  161.5432 C.2     1  UNL1        0.0800
      7 N         141.8835  142.5795  162.9483 N.2     1  UNL1       -0.2519
      8 C         140.8598  143.2149  163.8418 C.2     1  UNL1        0.0627
      9 C         140.6301  143.1329  165.3218 C.3     1  UNL1        0.0717
     10 C         139.5015  143.8963  165.9490 C.2     1  UNL1       -0.0198
     11 C         138.6026  144.7417  165.0962 C.2     1  UNL1       -0.0042
     12 C         138.8323  144.8237  163.6162 C.2     1  UNL1        0.0006
     13 C         139.9609  144.0603  162.9890 C.2     1  UNL1        0.0111
     14 H         141.5656  142.5702  158.3457 H       1  UNL1        0.1246
     15 C         143.1453  141.9134  161.1798 C.ar    1  UNL1        0.2493
     16 N         142.8462  140.5199  161.6473 N.ar    1  UNL1       -0.1285
     17 N         143.9503  140.0931  162.5688 N.ar    1  UNL1       -0.1809
     18 C         144.0546  138.7691  163.2658 C.3     1  UNL1        0.1605
     19 C         144.9317  141.2229  162.6706 C.ar    1  UNL1        0.4389
     20 O         146.1898  141.2270  163.4875 O.2     1  UNL1       -0.2210
     21 O         144.4342  142.3479  161.8122 O.2     1  UNL1       -0.3896
     22 C         140.1107  144.8690  157.7214 C.ar    1  UNL1        0.1319
     23 N         140.3304  146.2847  157.2772 N.ar    1  UNL1       -0.2282
     24 C         139.6561  146.4638  155.9493 C.ar    1  UNL1        0.1171
     25 C         139.0197  145.1587  155.5728 C.ar    1  UNL1        0.0942
     26 N         139.3007  144.1731  156.6681 N.ar    1  UNL1       -0.3385
     27 H         139.0053  143.2342  156.6915 H       1  UNL1        0.1672
     28 C         139.6239  147.7264  155.1399 C.ar    1  UNL1        0.1006
     29 C         140.2480  147.7592  153.7763 C.ar    1  UNL1        0.0230
     30 C         140.2158  149.0216  152.9669 C.ar    1  UNL1        0.0328
     31 C         139.5596  150.2513  153.5212 C.ar    1  UNL1        0.1592
     32 F         139.5273  151.5139  152.7118 F       1  UNL1       -0.2025
     33 C         138.9355  150.2185  154.8848 C.ar    1  UNL1        0.1284
     34 N         138.9677  148.9560  155.6942 N.ar    1  UNL1       -0.2399
     35 N         145.0752  141.9226  157.6497 N.ar    1  UNL1       -0.2497
     36 C         144.3226  142.9017  158.5012 C.ar    1  UNL1        0.0944
     37 C         143.2817  142.1430  159.2700 C.ar    1  UNL1        0.0439
     38 C         143.3911  140.6951  158.8937 C.ar    1  UNL1        0.1194
     39 N         144.4996  140.5589  157.8923 N.ar    1  UNL1       -0.1679
     40 C         147.4587  142.8773  157.2528 C.3     1  UNL1        0.0284
     41 C         146.2052  142.2498  156.7190 C.3     1  UNL1        0.1276
@<TRIPOS>BOND
     1    40    41    1
     2    41    35    1
     3    35    36   ar
     4    36    37   ar
     5     1    37    1
     6     1    15    1
     7    15    16   ar
     8    16    17   ar
     9    17    18    1
    10    17    19   ar
    11    19    20    2
    12    19    21   ar
    13     1     2    1
    14     2     3    1
    15     3    22    1
    16    22    23   ar
    17    23    24   ar
    18    24    28    1
    19    28    29   ar
    20    29    30   ar
    21    30    31   ar
    22    31    32    1
    23    31    33   ar
    24    33    34   ar
    25    24    25   ar
    26    25    26   ar
    27     3     4    1
    28     4     5    1
    29     5     6    2
    30     6     7    1
    31     7     8    2
    32     8     9    1
    33     9    10    1
    34    10    11    2
    35    11    12    1
    36    12    13    2
    37    37    38   ar
    38    38    39   ar
    39    39    35   ar
    40     6     1    1
    41    13     8    1
    42    21    15   ar
    43    26    22   ar
    44    13     5    1
    45    34    28   ar
    46     2    14    1
    47    26    27    1
@<TRIPOS>MOLECULE
*****
 41 47 0 0 0
SMALL
GASTEIGER

@<TRIPOS>ATOM
      1 C         140.8662  141.2668  159.8858 C.3     1  UNL1        0.1707
      2 N         141.1749  140.1885  158.8898 N.3     1  UNL1       -0.2797
      3 C         142.4651  139.4291  158.9823 C.3     1  UNL1        0.1167
      4 C         143.4468  139.7481  160.0707 C.3     1  UNL1        0.0511
      5 C         143.1382  140.8264  161.0667 C.2     1  UNL1       -0.0037
      6 C         141.8479  141.5858  160.9742 C.2     1  UNL1        0.0800
      7 N         141.8188  142.5877  162.0902 N.2     1  UNL1       -0.2519
      8 C         143.0910  142.4475  162.8723 C.2     1  UNL1        0.0627
      9 C         143.6123  143.1705  164.0788 C.3     1  UNL1        0.0717
     10 C         144.9491  142.8049  164.6527 C.2     1  UNL1       -0.0198
     11 C         145.7645  141.7163  164.0201 C.2     1  UNL1       -0.0042
     12 C         145.2432  140.9934  162.8136 C.2     1  UNL1        0.0006
     13 C         143.9065  141.3590  162.2397 C.2     1  UNL1        0.0111
     14 H         141.1553  140.6247  157.9680 H       1  UNL1        0.1246
     15 C         140.1276  142.3671  160.5886 C.ar    1  UNL1        0.2493
     16 N         139.0884  142.1900  161.6555 N.ar    1  UNL1       -0.1285
     17 N         138.6171  143.5512  162.0741 N.ar    1  UNL1       -0.1809
     18 C         137.5799  143.8427  163.1177 C.3     1  UNL1        0.1605
     19 C         139.3652  144.5695  161.2658 C.ar    1  UNL1        0.4389
     20 O         139.2074  146.0583  161.3592 O.2     1  UNL1       -0.2210
     21 O         140.2988  143.8377  160.3477 O.2     1  UNL1       -0.3896
     22 C         142.7738  138.3507  157.9863 C.ar    1  UNL1        0.1319
     23 N         142.4039  136.9025  158.1119 N.ar    1  UNL1       -0.2282
     24 C         142.9080  136.1880  156.8932 C.ar    1  UNL1        0.1171
     25 C         143.5895  137.1947  156.0144 C.ar    1  UNL1        0.0942
     26 N         143.5065  138.5313  156.6900 N.ar    1  UNL1       -0.3385
     27 H         143.8693  139.3784  156.3435 H       1  UNL1        0.1672
     28 C         142.7571  134.7239  156.6040 C.ar    1  UNL1        0.1006
     29 C         141.7923  134.2627  155.5521 C.ar    1  UNL1        0.0230
     30 C         141.6414  132.7986  155.2629 C.ar    1  UNL1        0.0328
     31 C         142.4553  131.7957  156.0256 C.ar    1  UNL1        0.1592
     32 F         142.3044  130.3316  155.7364 F       1  UNL1       -0.2025
     33 C         143.4201  132.2569  157.0775 C.ar    1  UNL1        0.1284
     34 N         143.5710  133.7210  157.3667 N.ar    1  UNL1       -0.2399
     35 N         137.9562  142.0763  157.4482 N.ar    1  UNL1       -0.2497
     36 C         139.2783  142.4176  158.0695 C.ar    1  UNL1        0.0944
     37 C         139.6281  141.3300  159.0415 C.ar    1  UNL1        0.0439
     38 C         138.5223  140.3166  159.0210 C.ar    1  UNL1        0.1194
     39 N         137.4890  140.7779  158.0362 N.ar    1  UNL1       -0.1679
     40 C         136.2766  142.2241  155.4716 C.3     1  UNL1        0.0284
     41 C         137.2291  142.8906  156.4195 C.3     1  UNL1        0.1276
@<TRIPOS>BOND
     1    40    41    1
     2    41    35    1
     3    35    36   ar
     4    36    37   ar
     5     1    37    1
     6     1    15    1
     7    15    16   ar
     8    16    17   ar
     9    17    18    1
    10    17    19   ar
    11    19    20    2
    12    19    21   ar
    13     1     2    1
    14     2     3    1
    15     3    22    1
    16    22    23   ar
    17    23    24   ar
    18    24    28    1
    19    28    29   ar
    20    29    30   ar
    21    30    31   ar
    22    31    32    1
    23    31    33   ar
    24    33    34   ar
    25    24    25   ar
    26    25    26   ar
    27     3     4    1
    28     4     5    1
    29     5     6    2
    30     6     7    1
    31     7     8    2
    32     8     9    1
    33     9    10    1
    34    10    11    2
    35    11    12    1
    36    12    13    2
    37    37    38   ar
    38    38    39   ar
    39    39    35   ar
    40     6     1    1
    41    13     8    1
    42    21    15   ar
    43    26    22   ar
    44    13     5    1
    45    34    28   ar
    46     2    14    1
    47    26    27    1
@<TRIPOS>MOLECULE
*****
 41 47 0 0 0
SMALL
GASTEIGER

@<TRIPOS>ATOM
      1 C         141.2864  141.3203  160.3973 C.3     1  UNL1        0.1707
      2 N         141.7906  140.4253  159.3043 N.3     1  UNL1       -0.2797
      3 C         141.6761  138.9360  159.4418 C.3     1  UNL1        0.1167
      4 C         141.0574  138.3418  160.6722 C.3     1  UNL1        0.0511
      5 C         140.5531  139.2368  161.7652 C.2     1  UNL1       -0.0037
      6 C         140.6677  140.7261  161.6277 C.2     1  UNL1        0.0800
      7 N         140.0864  141.3514  162.8611 N.2     1  UNL1       -0.2519
      8 C         139.6127  140.2486  163.7608 C.2     1  UNL1        0.0627
      9 C         138.9559  140.2657  165.1092 C.3     1  UNL1        0.0717
     10 C         138.5876  138.9758  165.7804 C.2     1  UNL1       -0.0198
     11 C         138.8761  137.6688  165.1031 C.2     1  UNL1       -0.0042
     12 C         139.5329  137.6518  163.7546 C.2     1  UNL1        0.0006
     13 C         139.9011  138.9417  163.0835 C.2     1  UNL1        0.0111
     14 H         142.7819  140.6348  159.1860 H       1  UNL1        0.1246
     15 C         140.9573  142.5728  161.1543 C.ar    1  UNL1        0.2493
     16 N         141.8522  143.2713  162.1347 N.ar    1  UNL1       -0.1285
     17 N         141.1234  144.4769  162.6501 N.ar    1  UNL1       -0.1809
     18 C         141.6479  145.4627  163.6516 C.3     1  UNL1        0.1605
     19 C         139.7782  144.5234  161.9882 C.ar    1  UNL1        0.4389
     20 O         138.7212  145.5640  162.2116 O.2     1  UNL1       -0.2210
     21 O         139.6755  143.3466  161.0637 O.2     1  UNL1       -0.3896
     22 C         142.1804  138.0409  158.3487 C.ar    1  UNL1        0.1319
     23 N         142.5698  136.6002  158.4984 N.ar    1  UNL1       -0.2282
     24 C         143.0138  136.0982  157.1564 C.ar    1  UNL1        0.1171
     25 C         142.8987  137.2288  156.1774 C.ar    1  UNL1        0.0942
     26 N         142.3836  138.4295  156.9143 N.ar    1  UNL1       -0.3385
     27 H         142.2095  139.3168  156.5248 H       1  UNL1        0.1672
     28 C         143.4894  134.7095  156.8476 C.ar    1  UNL1        0.1006
     29 C         143.2431  134.1165  155.4920 C.ar    1  UNL1        0.0230
     30 C         143.7187  132.7278  155.1832 C.ar    1  UNL1        0.0328
     31 C         144.4405  131.9321  156.2300 C.ar    1  UNL1        0.1592
     32 F         144.9161  130.5434  155.9213 F       1  UNL1       -0.2025
     33 C         144.6868  132.5252  157.5856 C.ar    1  UNL1        0.1284
     34 N         144.2113  133.9139  157.8944 N.ar    1  UNL1       -0.2399
     35 N         141.8886  143.9677  157.6234 N.ar    1  UNL1       -0.2497
     36 C         140.9893  143.0099  158.3474 C.ar    1  UNL1        0.0944
     37 C         141.7909  142.3496  159.4298 C.ar    1  UNL1        0.0439
     38 C         143.1855  142.8992  159.3747 C.ar    1  UNL1        0.1194
     39 N         143.2458  143.8993  158.2583 N.ar    1  UNL1       -0.1679
     40 C         140.6447  146.0521  156.6971 C.3     1  UNL1        0.0284
     41 C         141.4989  144.8406  156.4675 C.3     1  UNL1        0.1276
@<TRIPOS>BOND
     1    40    41    1
     2    41    35    1
     3    35    36   ar
     4    36    37   ar
     5     1    37    1
     6     1    15    1
     7    15    16   ar
     8    16    17   ar
     9    17    18    1
    10    17    19   ar
    11    19    20    2
    12    19    21   ar
    13     1     2    1
    14     2     3    1
    15     3    22    1
    16    22    23   ar
    17    23    24   ar
    18    24    28    1
    19    28    29   ar
    20    29    30   ar
    21    30    31   ar
    22    31    32    1
    23    31    33   ar
    24    33    34   ar
    25    24    25   ar
    26    25    26   ar
    27     3     4    1
    28     4     5    1
    29     5     6    2
    30     6     7    1
    31     7     8    2
    32     8     9    1
    33     9    10    1
    34    10    11    2
    35    11    12    1
    36    12    13    2
    37    37    38   ar
    38    38    39   ar
    39    39    35   ar
    40     6     1    1
    41    13     8    1
    42    21    15   ar
    43    26    22   ar
    44    13     5    1
    45    34    28   ar
    46     2    14    1
    47    26    27    1
@<TRIPOS>MOLECULE
*****
 41 47 0 0 0
SMALL
GASTEIGER

@<TRIPOS>ATOM
      1 C         141.4830  142.1525  159.3738 C.3     1  UNL1        0.1707
      2 N         140.2184  141.7561  158.6713 N.3     1  UNL1       -0.2797
      3 C         140.2422  141.4407  157.2050 C.3     1  UNL1        0.1167
      4 C         141.5307  141.5217  156.4413 C.3     1  UNL1        0.0511
      5 C         142.7954  141.9181  157.1438 C.2     1  UNL1       -0.0037
      6 C         142.7715  142.2335  158.6101 C.2     1  UNL1        0.0800
      7 N         144.1660  142.5931  159.0296 N.2     1  UNL1       -0.2519
      8 C         145.0517  142.5000  157.8226 C.2     1  UNL1        0.0627
      9 C         146.5202  142.7411  157.6342 C.3     1  UNL1        0.0717
     10 C         147.1415  142.5651  156.2804 C.2     1  UNL1       -0.0198
     11 C         146.2943  142.1480  155.1149 C.2     1  UNL1       -0.0042
     12 C         144.8259  141.9068  155.3033 C.2     1  UNL1        0.0006
     13 C         144.2046  142.0828  156.6571 C.2     1  UNL1        0.0111
     14 H         139.5588  142.5240  158.7966 H       1  UNL1        0.1246
     15 C         142.4123  142.5713  160.4744 C.ar    1  UNL1        0.2493
     16 N         143.1976  141.6525  161.3626 N.ar    1  UNL1       -0.1285
     17 N         143.9900  142.4959  162.3170 N.ar    1  UNL1       -0.1809
     18 C         144.9155  141.9883  163.3827 C.3     1  UNL1        0.1605
     19 C         143.6944  143.9358  162.0186 C.ar    1  UNL1        0.4389
     20 O         144.2725  145.1211  162.7335 O.2     1  UNL1       -0.2210
     21 O         142.7193  143.9824  160.8797 O.2     1  UNL1       -0.3896
     22 C         138.9776  141.0443  156.5024 C.ar    1  UNL1        0.1319
     23 N         137.5881  141.1618  157.0550 N.ar    1  UNL1       -0.2282
     24 C         136.6322  140.6509  156.0180 C.ar    1  UNL1        0.1171
     25 C         137.4309  140.2178  154.8246 C.ar    1  UNL1        0.0942
     26 N         138.8805  140.4609  155.1240 N.ar    1  UNL1       -0.3385
     27 H         139.6356  140.2709  154.5215 H       1  UNL1        0.1672
     28 C         135.1395  140.5849  156.1511 C.ar    1  UNL1        0.1006
     29 C         134.2677  141.3698  155.2164 C.ar    1  UNL1        0.0230
     30 C         132.7751  141.3038  155.3495 C.ar    1  UNL1        0.0328
     31 C         132.1543  140.4528  156.4173 C.ar    1  UNL1        0.1592
     32 F         130.6616  140.3868  156.5505 F       1  UNL1       -0.2025
     33 C         133.0261  139.6679  157.3521 C.ar    1  UNL1        0.1284
     34 N         134.5187  139.7339  157.2190 N.ar    1  UNL1       -0.2399
     35 N         138.8859  143.0336  162.1205 N.ar    1  UNL1       -0.2497
     36 C         139.7146  143.4159  160.9300 C.ar    1  UNL1        0.0944
     37 C         140.5173  142.2169  160.5197 C.ar    1  UNL1        0.0439
     38 C         140.1846  141.0937  161.4566 C.ar    1  UNL1        0.1194
     39 N         139.1763  141.5984  162.4459 N.ar    1  UNL1       -0.1679
     40 C         137.8249  143.8425  164.3498 C.3     1  UNL1        0.0284
     41 C         137.9339  143.9293  162.8563 C.3     1  UNL1        0.1276
@<TRIPOS>BOND
     1    40    41    1
     2    41    35    1
     3    35    36   ar
     4    36    37   ar
     5     1    37    1
     6     1    15    1
     7    15    16   ar
     8    16    17   ar
     9    17    18    1
    10    17    19   ar
    11    19    20    2
    12    19    21   ar
    13     1     2    1
    14     2     3    1
    15     3    22    1
    16    22    23   ar
    17    23    24   ar
    18    24    28    1
    19    28    29   ar
    20    29    30   ar
    21    30    31   ar
    22    31    32    1
    23    31    33   ar
    24    33    34   ar
    25    24    25   ar
    26    25    26   ar
    27     3     4    1
    28     4     5    1
    29     5     6    2
    30     6     7    1
    31     7     8    2
    32     8     9    1
    33     9    10    1
    34    10    11    2
    35    11    12    1
    36    12    13    2
    37    37    38   ar
    38    38    39   ar
    39    39    35   ar
    40     6     1    1
    41    13     8    1
    42    21    15   ar
    43    26    22   ar
    44    13     5    1
    45    34    28   ar
    46     2    14    1
    47    26    27    1
@<TRIPOS>MOLECULE
*****
 41 47 0 0 0
SMALL
GASTEIGER

@<TRIPOS>ATOM
      1 C         141.1121  140.2273  159.7334 C.3     1  UNL1        0.1707
      2 N         141.6628  138.9835  159.1012 N.3     1  UNL1       -0.2797
      3 C         142.3326  139.0568  157.7610 C.3     1  UNL1        0.1167
      4 C         142.4516  140.3739  157.0531 C.3     1  UNL1        0.0511
      5 C         141.9008  141.6177  157.6853 C.2     1  UNL1       -0.0037
      6 C         141.2311  141.5444  159.0254 C.2     1  UNL1        0.0800
      7 N         140.7871  142.9279  159.3979 N.2     1  UNL1       -0.2519
      8 C         141.1824  143.8562  158.2880 C.2     1  UNL1        0.0627
      9 C         141.0045  145.3342  158.1044 C.3     1  UNL1        0.0717
     10 C         141.5150  146.0025  156.8623 C.2     1  UNL1       -0.0198
     11 C         142.2034  145.1927  155.8038 C.2     1  UNL1       -0.0042
     12 C         142.3812  143.7147  155.9874 C.2     1  UNL1        0.0006
     13 C         141.8708  143.0464  157.2295 C.2     1  UNL1        0.0111
     14 H         140.8839  138.3320  159.0059 H       1  UNL1        0.1246
     15 C         140.4388  141.1216  160.7319 C.ar    1  UNL1        0.2493
     16 N         141.1186  141.8933  161.8237 N.ar    1  UNL1       -0.1285
     17 N         140.0674  142.6498  162.5804 N.ar    1  UNL1       -0.1809
     18 C         140.3042  143.5521  163.7550 C.3     1  UNL1        0.1605
     19 C         138.7378  142.3456  161.9562 C.ar    1  UNL1        0.4389
     20 O         137.4115  142.8903  162.3971 O.2     1  UNL1       -0.2210
     21 O         138.9673  141.4011  160.8137 O.2     1  UNL1       -0.3896
     22 C         142.8834  137.8130  157.1288 C.ar    1  UNL1        0.1319
     23 N         142.5600  136.4037  157.5279 N.ar    1  UNL1       -0.2282
     24 C         143.3309  135.4799  156.6323 C.ar    1  UNL1        0.1171
     25 C         144.1307  136.3182  155.6797 C.ar    1  UNL1        0.0942
     26 N         143.8541  137.7602  155.9866 N.ar    1  UNL1       -0.3385
     27 H         144.2417  138.5357  155.5202 H       1  UNL1        0.1672
     28 C         143.3063  133.9808  156.6807 C.ar    1  UNL1        0.1006
     29 C         144.3307  133.2396  157.4877 C.ar    1  UNL1        0.0230
     30 C         144.3062  131.7406  157.5362 C.ar    1  UNL1        0.0328
     31 C         143.2572  130.9828  156.7778 C.ar    1  UNL1        0.1592
     32 F         143.2326  129.4838  156.8262 F       1  UNL1       -0.2025
     33 C         142.2328  131.7240  155.9708 C.ar    1  UNL1        0.1284
     34 N         142.2573  133.2230  155.9223 N.ar    1  UNL1       -0.2399
     35 N         140.8599  137.8191  162.7669 N.ar    1  UNL1       -0.2497
     36 C         141.5934  138.8672  161.9836 C.ar    1  UNL1        0.0944
     37 C         140.7592  139.2209  160.7881 C.ar    1  UNL1        0.0439
     38 C         139.5102  138.3914  160.8326 C.ar    1  UNL1        0.1194
     39 N         139.5724  137.5250  162.0556 N.ar    1  UNL1       -0.1679
     40 C         142.0067  138.0060  165.0907 C.3     1  UNL1        0.0284
     41 C         141.3312  137.1776  164.0383 C.3     1  UNL1        0.1276
@<TRIPOS>BOND
     1    40    41    1
     2    41    35    1
     3    35    36   ar
     4    36    37   ar
     5     1    37    1
     6     1    15    1
     7    15    16   ar
     8    16    17   ar
     9    17    18    1
    10    17    19   ar
    11    19    20    2
    12    19    21   ar
    13     1     2    1
    14     2     3    1
    15     3    22    1
    16    22    23   ar
    17    23    24   ar
    18    24    28    1
    19    28    29   ar
    20    29    30   ar
    21    30    31   ar
    22    31    32    1
    23    31    33   ar
    24    33    34   ar
    25    24    25   ar
    26    25    26   ar
    27     3     4    1
    28     4     5    1
    29     5     6    2
    30     6     7    1
    31     7     8    2
    32     8     9    1
    33     9    10    1
    34    10    11    2
    35    11    12    1
    36    12    13    2
    37    37    38   ar
    38    38    39   ar
    39    39    35   ar
    40     6     1    1
    41    13     8    1
    42    21    15   ar
    43    26    22   ar
    44    13     5    1
    45    34    28   ar
    46     2    14    1
    47    26    27    1
@<TRIPOS>MOLECULE
*****
 41 47 0 0 0
SMALL
GASTEIGER

@<TRIPOS>ATOM
      1 C         142.0163  141.0956  159.7786 C.3     1  UNL1        0.1707
      2 N         142.0229  139.7296  159.1590 N.3     1  UNL1       -0.2797
      3 C         141.5631  139.5462  157.7430 C.3     1  UNL1        0.1167
      4 C         141.0968  140.7288  156.9467 C.3     1  UNL1        0.0511
      5 C         141.0902  142.0948  157.5664 C.2     1  UNL1       -0.0037
      6 C         141.5500  142.2782  158.9823 C.2     1  UNL1        0.0800
      7 N         141.4324  143.7342  159.3229 N.2     1  UNL1       -0.2519
      8 C         140.9000  144.4507  158.1174 C.2     1  UNL1        0.0627
      9 C         140.5804  145.8949  157.8680 C.3     1  UNL1        0.0717
     10 C         140.0494  146.3258  156.5330 C.2     1  UNL1       -0.0198
     11 C         139.8379  145.3125  155.4474 C.2     1  UNL1       -0.0042
     12 C         140.1575  143.8683  155.6968 C.2     1  UNL1        0.0006
     13 C         140.6885  143.4375  157.0318 C.2     1  UNL1        0.0111
     14 H         141.4278  139.1396  159.7405 H       1  UNL1        0.1246
     15 C         142.1930  142.1820  160.7978 C.ar    1  UNL1        0.2493
     16 N         141.1627  142.6381  161.7878 N.ar    1  UNL1       -0.1285
     17 N         141.7641  143.7410  162.6077 N.ar    1  UNL1       -0.1809
     18 C         141.0830  144.4874  163.7162 C.3     1  UNL1        0.1605
     19 C         143.1660  143.9664  162.1243 C.ar    1  UNL1        0.4389
     20 O         144.1330  144.9778  162.6646 O.2     1  UNL1       -0.2210
     21 O         143.4311  143.0028  161.0056 O.2     1  UNL1       -0.3896
     22 C         141.5697  138.1801  157.1232 C.ar    1  UNL1        0.1319
     23 N         142.5887  137.1067  157.3664 N.ar    1  UNL1       -0.2282
     24 C         142.2072  135.9109  156.5450 C.ar    1  UNL1        0.1171
     25 C         140.9525  136.2454  155.7943 C.ar    1  UNL1        0.0942
     26 N         140.5584  137.6479  156.1517 N.ar    1  UNL1       -0.3385
     27 H         139.7739  138.1338  155.8087 H       1  UNL1        0.1672
     28 C         142.9501  134.6091  156.4850 C.ar    1  UNL1        0.1006
     29 C         142.8895  133.7675  155.2448 C.ar    1  UNL1        0.0230
     30 C         143.6324  132.4658  155.1847 C.ar    1  UNL1        0.0328
     31 C         144.4359  132.0057  156.3648 C.ar    1  UNL1        0.1592
     32 F         145.1788  130.7039  156.3047 F       1  UNL1       -0.2025
     33 C         144.4965  132.8473  157.6050 C.ar    1  UNL1        0.1284
     34 N         143.7536  134.1490  157.6651 N.ar    1  UNL1       -0.2399
     35 N         142.6555  138.9394  162.9421 N.ar    1  UNL1       -0.2497
     36 C         141.7205  139.6362  161.9985 C.ar    1  UNL1        0.0944
     37 C         142.5440  140.2903  160.9289 C.ar    1  UNL1        0.0439
     38 C         143.9878  139.9978  161.2115 C.ar    1  UNL1        0.1194
     39 N         144.0567  139.1629  162.4558 N.ar    1  UNL1       -0.1679
     40 C         141.1189  137.1842  164.0859 C.3     1  UNL1        0.0284
     41 C         142.2588  138.1565  164.1586 C.3     1  UNL1        0.1276
@<TRIPOS>BOND
     1    40    41    1
     2    41    35    1
     3    35    36   ar
     4    36    37   ar
     5     1    37    1
     6     1    15    1
     7    15    16   ar
     8    16    17   ar
     9    17    18    1
    10    17    19   ar
    11    19    20    2
    12    19    21   ar
    13     1     2    1
    14     2     3    1
    15     3    22    1
    16    22    23   ar
    17    23    24   ar
    18    24    28    1
    19    28    29   ar
    20    29    30   ar
    21    30    31   ar
    22    31    32    1
    23    31    33   ar
    24    33    34   ar
    25    24    25   ar
    26    25    26   ar
    27     3     4    1
    28     4     5    1
    29     5     6    2
    30     6     7    1
    31     7     8    2
    32     8     9    1
    33     9    10    1
    34    10    11    2
    35    11    12    1
    36    12    13    2
    37    37    38   ar
    38    38    39   ar
    39    39    35   ar
    40     6     1    1
    41    13     8    1
    42    21    15   ar
    43    26    22   ar
    44    13     5    1
    45    34    28   ar
    46     2    14    1
    47    26    27    1
@<TRIPOS>MOLECULE
*****
 41 47 0 0 0
SMALL
GASTEIGER

@<TRIPOS>ATOM
      1 C         140.1751  140.5640  160.1344 C.3     1  UNL1        0.1707
      2 N         140.8445  140.5417  161.4765 N.3     1  UNL1       -0.2797
      3 C         141.9469  139.5615  161.7486 C.3     1  UNL1        0.1167
      4 C         142.3798  138.6036  160.6785 C.3     1  UNL1        0.0511
      5 C         141.7104  138.6259  159.3364 C.2     1  UNL1       -0.0037
      6 C         140.6080  139.6060  159.0643 C.2     1  UNL1        0.0800
      7 N         140.1375  139.3951  157.6557 N.2     1  UNL1       -0.2519
      8 C         140.9491  138.2846  157.0573 C.2     1  UNL1        0.0627
      9 C         140.9285  137.6450  155.7007 C.3     1  UNL1        0.0717
     10 C         141.8800  136.5298  155.3828 C.2     1  UNL1       -0.0198
     11 C         142.8521  136.0544  156.4216 C.2     1  UNL1       -0.0042
     12 C         142.8727  136.6941  157.7781 C.2     1  UNL1        0.0006
     13 C         141.9212  137.8092  158.0960 C.2     1  UNL1        0.0111
     14 H         140.1149  140.3633  162.1666 H       1  UNL1        0.1246
     15 C         139.2428  140.9676  159.0307 C.ar    1  UNL1        0.2493
     16 N         139.4022  142.1589  158.1335 N.ar    1  UNL1       -0.1285
     17 N         138.2453  142.1782  157.1787 N.ar    1  UNL1       -0.1809
     18 C         138.0051  143.1980  156.1053 C.3     1  UNL1        0.1605
     19 C         137.3711  140.9987  157.4860 C.ar    1  UNL1        0.4389
     20 O         136.1030  140.6318  156.7736 O.2     1  UNL1       -0.2210
     21 O         137.9876  140.2504  158.6306 O.2     1  UNL1       -0.3896
     22 C         142.6164  139.5393  163.0908 C.ar    1  UNL1        0.1319
     23 N         142.0503  140.0865  164.3675 N.ar    1  UNL1       -0.2282
     24 C         143.0535  139.8513  165.4576 C.ar    1  UNL1        0.1171
     25 C         144.2395  139.1587  164.8545 C.ar    1  UNL1        0.0942
     26 N         143.9694  138.9659  163.3917 N.ar    1  UNL1       -0.3385
     27 H         144.5739  138.5381  162.7431 H       1  UNL1        0.1672
     28 C         142.8980  140.2404  166.8979 C.ar    1  UNL1        0.1006
     29 C         142.7948  141.6881  167.2768 C.ar    1  UNL1        0.0230
     30 C         142.6392  142.0772  168.7170 C.ar    1  UNL1        0.0328
     31 C         142.5868  141.0186  169.7784 C.ar    1  UNL1        0.1592
     32 F         142.4312  141.4077  171.2187 F       1  UNL1       -0.2025
     33 C         142.6900  139.5709  169.3996 C.ar    1  UNL1        0.1284
     34 N         142.8456  139.1818  167.9593 N.ar    1  UNL1       -0.2399
     35 N         138.8754  143.7713  161.8919 N.ar    1  UNL1       -0.2497
     36 C         139.9793  142.9863  161.2475 C.ar    1  UNL1        0.0944
     37 C         139.4184  141.6620  160.8211 C.ar    1  UNL1        0.0439
     38 C         137.9679  141.6287  161.2020 C.ar    1  UNL1        0.1194
     39 N         137.6324  142.9323  161.8638 N.ar    1  UNL1       -0.1679
     40 C         139.7699  146.2051  161.7287 C.3     1  UNL1        0.0284
     41 C         138.9939  145.1529  162.4640 C.3     1  UNL1        0.1276
@<TRIPOS>BOND
     1    40    41    1
     2    41    35    1
     3    35    36   ar
     4    36    37   ar
     5     1    37    1
     6     1    15    1
     7    15    16   ar
     8    16    17   ar
     9    17    18    1
    10    17    19   ar
    11    19    20    2
    12    19    21   ar
    13     1     2    1
    14     2     3    1
    15     3    22    1
    16    22    23   ar
    17    23    24   ar
    18    24    28    1
    19    28    29   ar
    20    29    30   ar
    21    30    31   ar
    22    31    32    1
    23    31    33   ar
    24    33    34   ar
    25    24    25   ar
    26    25    26   ar
    27     3     4    1
    28     4     5    1
    29     5     6    2
    30     6     7    1
    31     7     8    2
    32     8     9    1
    33     9    10    1
    34    10    11    2
    35    11    12    1
    36    12    13    2
    37    37    38   ar
    38    38    39   ar
    39    39    35   ar
    40     6     1    1
    41    13     8    1
    42    21    15   ar
    43    26    22   ar
    44    13     5    1
    45    34    28   ar
    46     2    14    1
    47    26    27    1
@<TRIPOS>MOLECULE
*****
 41 47 0 0 0
SMALL
GASTEIGER

@<TRIPOS>ATOM
      1 C         142.5606  140.2532  159.2878 C.3     1  UNL1        0.1707
      2 N         143.3407  140.6341  158.0646 N.3     1  UNL1       -0.2797
      3 C         144.2306  141.8414  158.0886 C.3     1  UNL1        0.1167
      4 C         144.3403  142.6677  159.3356 C.3     1  UNL1        0.0511
      5 C         143.5601  142.2868  160.5588 C.2     1  UNL1       -0.0037
      6 C         142.6703  141.0795  160.5349 C.2     1  UNL1        0.0800
      7 N         142.0272  140.9510  161.8839 N.2     1  UNL1       -0.2519
      8 C         142.5195  142.0788  162.7416 C.2     1  UNL1        0.0627
      9 C         142.2276  142.4606  164.1624 C.3     1  UNL1        0.0717
     10 C         142.8831  143.6681  164.7643 C.2     1  UNL1       -0.0198
     11 C         143.8306  144.4937  163.9453 C.2     1  UNL1       -0.0042
     12 C         144.1225  144.1118  162.5245 C.2     1  UNL1        0.0006
     13 C         143.4670  142.9044  161.9226 C.2     1  UNL1        0.0111
     14 H         142.6626  140.7829  157.3174 H       1  UNL1        0.1246
     15 C         141.6300  139.4936  160.1863 C.ar    1  UNL1        0.2493
     16 N         140.1388  139.6446  160.2415 N.ar    1  UNL1       -0.1285
     17 N         139.6146  138.6940  161.2767 N.ar    1  UNL1       -0.1809
     18 C         138.1757  138.5137  161.6600 C.3     1  UNL1        0.1605
     19 C         140.7820  137.9555  161.8613 C.ar    1  UNL1        0.4389
     20 O         140.7154  136.9069  162.9318 O.2     1  UNL1       -0.2210
     21 O         142.0276  138.4497  161.1874 O.2     1  UNL1       -0.3896
     22 C         145.0108  142.2224  156.8653 C.ar    1  UNL1        0.1319
     23 N         146.4806  142.0091  156.6553 N.ar    1  UNL1       -0.2282
     24 C         146.8364  142.5385  155.2976 C.ar    1  UNL1        0.1171
     25 C         145.5865  143.0790  154.6687 C.ar    1  UNL1        0.0942
     26 N         144.4582  142.8837  155.6376 N.ar    1  UNL1       -0.3385
     27 H         143.5198  143.1438  155.4931 H       1  UNL1        0.1672
     28 C         148.2024  142.5290  154.6777 C.ar    1  UNL1        0.1006
     29 C         149.3148  141.7592  155.3259 C.ar    1  UNL1        0.0230
     30 C         150.6806  141.7497  154.7061 C.ar    1  UNL1        0.0328
     31 C         150.9342  142.5100  153.4382 C.ar    1  UNL1        0.1592
     32 F         152.3001  142.5005  152.8183 F       1  UNL1       -0.2025
     33 C         149.8218  143.2797  152.7900 C.ar    1  UNL1        0.1284
     34 N         148.4559  143.2892  153.4098 N.ar    1  UNL1       -0.2399
     35 N         142.0458  137.0682  157.1300 N.ar    1  UNL1       -0.2497
     36 C         142.8188  137.8469  158.1529 C.ar    1  UNL1        0.0944
     37 C         142.1277  139.1631  158.3528 C.ar    1  UNL1        0.0439
     38 C         140.9276  139.1978  157.4535 C.ar    1  UNL1        0.1194
     39 N         140.8771  137.9030  156.6978 N.ar    1  UNL1       -0.1679
     40 C         143.6105  135.4828  155.7927 C.3     1  UNL1        0.0284
     41 C         142.3826  135.6955  156.6276 C.3     1  UNL1        0.1276
@<TRIPOS>BOND
     1    40    41    1
     2    41    35    1
     3    35    36   ar
     4    36    37   ar
     5     1    37    1
     6     1    15    1
     7    15    16   ar
     8    16    17   ar
     9    17    18    1
    10    17    19   ar
    11    19    20    2
    12    19    21   ar
    13     1     2    1
    14     2     3    1
    15     3    22    1
    16    22    23   ar
    17    23    24   ar
    18    24    28    1
    19    28    29   ar
    20    29    30   ar
    21    30    31   ar
    22    31    32    1
    23    31    33   ar
    24    33    34   ar
    25    24    25   ar
    26    25    26   ar
    27     3     4    1
    28     4     5    1
    29     5     6    2
    30     6     7    1
    31     7     8    2
    32     8     9    1
    33     9    10    1
    34    10    11    2
    35    11    12    1
    36    12    13    2
    37    37    38   ar
    38    38    39   ar
    39    39    35   ar
    40     6     1    1
    41    13     8    1
    42    21    15   ar
    43    26    22   ar
    44    13     5    1
    45    34    28   ar
    46     2    14    1
    47    26    27    1
@<TRIPOS>MOLECULE
*****
 41 47 0 0 0
SMALL
GASTEIGER

@<TRIPOS>ATOM
      1 C         142.7393  139.8848  159.9986 C.3     1  UNL1        0.1707
      2 N         142.7164  140.5466  161.3445 N.3     1  UNL1       -0.2797
      3 C         143.6346  141.6978  161.6299 C.3     1  UNL1        0.1167
      4 C         144.5757  142.1873  160.5694 C.3     1  UNL1        0.0511
      5 C         144.5986  141.5255  159.2235 C.2     1  UNL1       -0.0037
      6 C         143.6804  140.3743  158.9381 C.2     1  UNL1        0.0800
      7 N         143.9261  139.9239  157.5285 N.2     1  UNL1       -0.2519
      8 C         144.9961  140.7968  156.9428 C.2     1  UNL1        0.0627
      9 C         145.6456  140.8182  155.5909 C.3     1  UNL1        0.0717
     10 C         146.7108  141.8294  155.2865 C.2     1  UNL1       -0.0198
     11 C         147.1265  142.8193  156.3341 C.2     1  UNL1       -0.0042
     12 C         146.4770  142.7979  157.6860 C.2     1  UNL1        0.0006
     13 C         145.4118  141.7867  157.9903 C.2     1  UNL1        0.0111
     14 H         142.9284  139.8234  162.0318 H       1  UNL1        0.1246
     15 C         142.3937  138.9389  158.8868 C.ar    1  UNL1        0.2493
     16 N         143.0971  137.6517  158.5737 N.ar    1  UNL1       -0.1285
     17 N         142.4221  137.0315  157.3863 N.ar    1  UNL1       -0.1809
     18 C         142.8012  135.7350  156.7342 C.3     1  UNL1        0.1605
     19 C         141.3015  137.9355  156.9657 C.ar    1  UNL1        0.4389
     20 O         140.3632  137.7017  155.8190 O.2     1  UNL1       -0.2210
     21 O         141.2839  139.1144  157.8930 O.2     1  UNL1       -0.3896
     22 C         143.6117  142.3597  162.9759 C.ar    1  UNL1        0.1319
     23 N         142.9202  141.8409  164.2017 N.ar    1  UNL1       -0.2282
     24 C         143.1574  142.8170  165.3157 C.ar    1  UNL1        0.1171
     25 C         143.9954  143.9390  164.7783 C.ar    1  UNL1        0.0942
     26 N         144.2762  143.6564  163.3322 N.ar    1  UNL1       -0.3385
     27 H         144.8039  144.2225  162.7237 H       1  UNL1        0.1672
     28 C         142.6462  142.6929  166.7205 C.ar    1  UNL1        0.1006
     29 C         141.1697  142.6417  166.9795 C.ar    1  UNL1        0.0230
     30 C         140.6585  142.5175  168.3842 C.ar    1  UNL1        0.0328
     31 C         141.6239  142.4446  169.5299 C.ar    1  UNL1        0.1592
     32 F         141.1127  142.3205  170.9347 F       1  UNL1       -0.2025
     33 C         143.1005  142.4959  169.2709 C.ar    1  UNL1        0.1284
     34 N         143.6116  142.6200  167.8662 N.ar    1  UNL1       -0.2399
     35 N         139.5201  138.2788  161.4557 N.ar    1  UNL1       -0.2497
     36 C         140.2048  139.3479  160.6566 C.ar    1  UNL1        0.0944
     37 C         141.6781  139.0668  160.6730 C.ar    1  UNL1        0.0439
     38 C         141.9040  137.8241  161.4822 C.ar    1  UNL1        0.1194
     39 N         140.5702  137.3371  161.9659 N.ar    1  UNL1       -0.1679
     40 C         137.1120  139.1992  161.1333 C.3     1  UNL1        0.0284
     41 C         138.0443  138.1706  161.7014 C.3     1  UNL1        0.1276
@<TRIPOS>BOND
     1    40    41    1
     2    41    35    1
     3    35    36   ar
     4    36    37   ar
     5     1    37    1
     6     1    15    1
     7    15    16   ar
     8    16    17   ar
     9    17    18    1
    10    17    19   ar
    11    19    20    2
    12    19    21   ar
    13     1     2    1
    14     2     3    1
    15     3    22    1
    16    22    23   ar
    17    23    24   ar
    18    24    28    1
    19    28    29   ar
    20    29    30   ar
    21    30    31   ar
    22    31    32    1
    23    31    33   ar
    24    33    34   ar
    25    24    25   ar
    26    25    26   ar
    27     3     4    1
    28     4     5    1
    29     5     6    2
    30     6     7    1
    31     7     8    2
    32     8     9    1
    33     9    10    1
    34    10    11    2
    35    11    12    1
    36    12    13    2
    37    37    38   ar
    38    38    39   ar
    39    39    35   ar
    40     6     1    1
    41    13     8    1
    42    21    15   ar
    43    26    22   ar
    44    13     5    1
    45    34    28   ar
    46     2    14    1
    47    26    27    1
