@<TRIPOS>MOLECULE
*****
 38 41 0 0 0
SMALL
GASTEIGER

@<TRIPOS>ATOM
      1 C         141.3300  140.7809  162.6955 C.2     1  UNL1       -0.0066
      2 C         142.2629  141.2455  161.6167 C.2     1  UNL1       -0.0414
      3 C         143.5159  141.9873  161.9769 C.3     1  UNL1        0.0394
      4 C         144.4488  142.4520  160.8982 C.3     1  UNL1        0.0767
      5 N         144.1287  142.1749  159.4592 N.3     1  UNL1       -0.2683
      6 C         142.8758  141.4331  159.0989 C.3     1  UNL1        0.0767
      7 C         141.9428  140.9684  160.1777 C.3     1  UNL1        0.0394
      8 C         142.2902  141.6122  167.0125 C.ar    1  UNL1        0.0536
      9 C         142.8023  140.3639  166.3572 C.ar    1  UNL1        0.0045
     10 C         142.4823  140.0868  164.9182 C.ar    1  UNL1        0.0001
     11 C         141.6501  141.0580  164.1345 C.ar    1  UNL1       -0.0006
     12 C         141.1379  142.3062  164.7898 C.ar    1  UNL1        0.0001
     13 C         141.4580  142.5833  166.2288 C.ar    1  UNL1        0.0045
     14 N         141.7444  141.3193  169.5357 N.am    1  UNL1       -0.2743
     15 C         142.0645  141.5964  170.9747 C.3     1  UNL1        0.1152
     16 C         142.6103  141.8893  168.4515 C.2     1  UNL1        0.2491
     17 O         143.7962  142.7363  168.8064 O.2     1  UNL1       -0.2699
     18 C         139.2444  140.6955  169.8689 C.3     1  UNL1        0.0233
     19 C         140.5584  140.4722  169.1808 C.3     1  UNL1        0.0938
     20 C         140.0770  140.0391  162.3352 C.ar    1  UNL1        0.0129
     21 C         140.0598  138.5394  162.3600 C.ar    1  UNL1        0.0012
     22 C         138.8068  137.7977  161.9997 C.ar    1  UNL1        0.0001
     23 C         137.5710  138.5556  161.6146 C.ar    1  UNL1        0.0013
     24 C         137.5882  140.0553  161.5899 C.ar    1  UNL1        0.0147
     25 C         138.8411  140.7971  161.9501 C.ar    1  UNL1        0.0502
     26 N         138.8583  142.2968  161.9253 N.am    1  UNL1       -0.2839
     27 C         138.2019  143.0727  163.0285 C.2     1  UNL1        0.2266
     28 C         138.2191  144.5724  163.0037 C.3     1  UNL1        0.0949
     29 O         137.5282  142.3489  164.1565 O.2     1  UNL1       -0.2748
     30 H         139.3005  142.7718  161.1850 H       1  UNL1        0.1549
     31 C         145.0617  142.6396  158.3804 C.3     1  UNL1        0.0992
     32 C         144.8888  142.1450  156.9749 C.ar    1  UNL1       -0.0060
     33 C         143.9365  142.8395  156.0472 C.ar    1  UNL1       -0.0006
     34 C         143.7635  142.3449  154.6417 C.ar    1  UNL1        0.0294
     35 C         144.5430  141.1557  154.1639 C.ar    1  UNL1        0.1401
     36 F         144.3700  140.6611  152.7584 F       1  UNL1       -0.2042
     37 C         145.4953  140.4611  155.0916 C.ar    1  UNL1        0.0294
     38 C         145.6682  140.9558  156.4971 C.ar    1  UNL1       -0.0006
@<TRIPOS>BOND
     1    18    19    1
     2    19    14    1
     3    14    15    1
     4    14    16   am
     5    16    17    2
     6    16     8    1
     7     8     9   ar
     8     9    10   ar
     9    10    11   ar
    10    11     1    1
    11     1     2    2
    12     2     3    1
    13     3     4    1
    14     4     5    1
    15     5    31    1
    16    31    32    1
    17    32    33   ar
    18    33    34   ar
    19    34    35   ar
    20    35    36    1
    21    35    37   ar
    22    37    38   ar
    23     5     6    1
    24     6     7    1
    25     1    20    1
    26    20    21   ar
    27    21    22   ar
    28    22    23   ar
    29    23    24   ar
    30    24    25   ar
    31    25    26    1
    32    26    27   am
    33    27    28    1
    34    27    29    2
    35    11    12   ar
    36    12    13   ar
    37    13     8   ar
    38     7     2    1
    39    25    20   ar
    40    38    32   ar
    41    26    30    1
@<TRIPOS>MOLECULE
*****
 38 41 0 0 0
SMALL
GASTEIGER

@<TRIPOS>ATOM
      1 C         141.5325  141.9304  162.3384 C.2     1  UNL1       -0.0066
      2 C         142.0773  141.4656  161.0205 C.2     1  UNL1       -0.0414
      3 C         142.9838  140.2718  160.9627 C.3     1  UNL1        0.0394
      4 C         143.5286  139.8069  159.6447 C.3     1  UNL1        0.0767
      5 N         143.1670  140.5357  158.3846 N.3     1  UNL1       -0.2683
      6 C         142.2606  141.7294  158.4423 C.3     1  UNL1        0.0767
      7 C         141.7158  142.1944  159.7603 C.3     1  UNL1        0.0394
      8 C         142.6172  139.7439  166.1189 C.ar    1  UNL1        0.0536
      9 C         141.5057  139.2342  165.2503 C.ar    1  UNL1        0.0045
     10 C         141.1441  139.9630  163.9901 C.ar    1  UNL1        0.0001
     11 C         141.8941  141.2016  163.5986 C.ar    1  UNL1       -0.0006
     12 C         143.0056  141.7114  164.4672 C.ar    1  UNL1        0.0001
     13 C         143.3672  140.9825  165.7274 C.ar    1  UNL1        0.0045
     14 N         142.3267  139.3912  168.6765 N.am    1  UNL1       -0.2743
     15 C         142.6883  138.6623  169.9367 C.3     1  UNL1        0.1152
     16 C         142.9788  139.0151  167.3791 C.2     1  UNL1        0.2491
     17 O         143.9925  137.9101  167.3419 O.2     1  UNL1       -0.2699
     18 C         139.8515  140.1773  168.6018 C.3     1  UNL1        0.0233
     19 C         141.3129  140.4962  168.7137 C.3     1  UNL1        0.0938
     20 C         140.6261  143.1242  162.3962 C.ar    1  UNL1        0.0129
     21 C         141.2078  144.5060  162.4438 C.ar    1  UNL1        0.0012
     22 C         140.3013  145.6997  162.5016 C.ar    1  UNL1        0.0001
     23 C         138.8132  145.5117  162.5117 C.ar    1  UNL1        0.0013
     24 C         138.2315  144.1299  162.4640 C.ar    1  UNL1        0.0147
     25 C         139.1379  142.9361  162.4063 C.ar    1  UNL1        0.0502
     26 N         138.5562  141.5543  162.3586 N.am    1  UNL1       -0.2839
     27 C         138.1443  140.9589  161.0449 C.2     1  UNL1        0.2266
     28 C         137.5627  139.5771  160.9973 C.3     1  UNL1        0.0949
     29 O         138.3141  141.7452  159.7789 O.2     1  UNL1       -0.2748
     30 H         138.4448  141.0383  163.1895 H       1  UNL1        0.1549
     31 C         143.7119  140.0708  157.0666 C.3     1  UNL1        0.0992
     32 C         144.9207  140.7360  156.4780 C.ar    1  UNL1       -0.0060
     33 C         145.4202  140.3227  155.1254 C.ar    1  UNL1       -0.0006
     34 C         146.6289  140.9879  154.5368 C.ar    1  UNL1        0.0294
     35 C         147.3382  142.0664  155.3009 C.ar    1  UNL1        0.1401
     36 F         148.5469  142.7316  154.7124 F       1  UNL1       -0.2042
     37 C         146.8386  142.4797  156.6536 C.ar    1  UNL1        0.0294
     38 C         145.6298  141.8144  157.2421 C.ar    1  UNL1       -0.0006
@<TRIPOS>BOND
     1    18    19    1
     2    19    14    1
     3    14    15    1
     4    14    16   am
     5    16    17    2
     6    16     8    1
     7     8     9   ar
     8     9    10   ar
     9    10    11   ar
    10    11     1    1
    11     1     2    2
    12     2     3    1
    13     3     4    1
    14     4     5    1
    15     5    31    1
    16    31    32    1
    17    32    33   ar
    18    33    34   ar
    19    34    35   ar
    20    35    36    1
    21    35    37   ar
    22    37    38   ar
    23     5     6    1
    24     6     7    1
    25     1    20    1
    26    20    21   ar
    27    21    22   ar
    28    22    23   ar
    29    23    24   ar
    30    24    25   ar
    31    25    26    1
    32    26    27   am
    33    27    28    1
    34    27    29    2
    35    11    12   ar
    36    12    13   ar
    37    13     8   ar
    38     7     2    1
    39    25    20   ar
    40    38    32   ar
    41    26    30    1
@<TRIPOS>MOLECULE
*****
 38 41 0 0 0
SMALL
GASTEIGER

@<TRIPOS>ATOM
      1 C         141.5100  141.7537  162.3516 C.2     1  UNL1       -0.0066
      2 C         141.9844  141.1884  161.0457 C.2     1  UNL1       -0.0414
      3 C         142.8114  139.9370  161.0264 C.3     1  UNL1        0.0394
      4 C         143.2858  139.3716  159.7206 C.3     1  UNL1        0.0767
      5 N         142.9333  140.0575  158.4340 N.3     1  UNL1       -0.2683
      6 C         142.1064  141.3089  158.4533 C.3     1  UNL1        0.0767
      7 C         141.6320  141.8743  159.7592 C.3     1  UNL1        0.0394
      8 C         142.5674  139.6959  166.2112 C.ar    1  UNL1        0.0536
      9 C         143.3501  140.8937  165.7610 C.ar    1  UNL1        0.0045
     10 C         142.9976  141.5796  164.4745 C.ar    1  UNL1        0.0001
     11 C         141.8625  141.0678  163.6381 C.ar    1  UNL1       -0.0006
     12 C         141.0799  139.8700  164.0883 C.ar    1  UNL1        0.0001
     13 C         141.4323  139.1840  165.3749 C.ar    1  UNL1        0.0045
     14 N         142.2737  139.4432  168.7802 N.am    1  UNL1       -0.2743
     15 C         142.6262  138.7572  170.0668 C.3     1  UNL1        0.1152
     16 C         142.9199  139.0099  167.4978 C.2     1  UNL1        0.2491
     17 O         143.9186  137.8908  167.5019 O.2     1  UNL1       -0.2699
     18 C         139.8068  140.2573  168.7430 C.3     1  UNL1        0.0233
     19 C         141.2750  140.5624  168.7762 C.3     1  UNL1        0.0938
     20 C         140.6831  143.0050  162.3708 C.ar    1  UNL1        0.0129
     21 C         141.3534  144.3465  162.4067 C.ar    1  UNL1        0.0012
     22 C         140.5264  145.5978  162.4259 C.ar    1  UNL1        0.0001
     23 C         139.0293  145.5077  162.4094 C.ar    1  UNL1        0.0013
     24 C         138.3590  144.1663  162.3735 C.ar    1  UNL1        0.0147
     25 C         139.1859  142.9150  162.3542 C.ar    1  UNL1        0.0502
     26 N         138.5156  141.5735  162.3184 N.am    1  UNL1       -0.2839
     27 C         138.0803  140.9874  161.0081 C.2     1  UNL1        0.2266
     28 C         137.4101  139.6459  160.9722 C.3     1  UNL1        0.0949
     29 O         138.3154  141.7427  159.7335 O.2     1  UNL1       -0.2748
     30 H         138.3613  141.0778  163.1549 H       1  UNL1        0.1549
     31 C         143.4078  139.4921  157.1281 C.3     1  UNL1        0.0992
     32 C         142.8255  138.2106  156.6099 C.ar    1  UNL1       -0.0060
     33 C         141.3436  137.9842  156.6641 C.ar    1  UNL1       -0.0006
     34 C         140.7613  136.7026  156.1459 C.ar    1  UNL1        0.0294
     35 C         141.6608  135.6475  155.5735 C.ar    1  UNL1        0.1401
     36 F         141.0785  134.3659  155.0553 F       1  UNL1       -0.2042
     37 C         143.1427  135.8739  155.5194 C.ar    1  UNL1        0.0294
     38 C         143.7250  137.1555  156.0376 C.ar    1  UNL1       -0.0006
@<TRIPOS>BOND
     1    18    19    1
     2    19    14    1
     3    14    15    1
     4    14    16   am
     5    16    17    2
     6    16     8    1
     7     8     9   ar
     8     9    10   ar
     9    10    11   ar
    10    11     1    1
    11     1     2    2
    12     2     3    1
    13     3     4    1
    14     4     5    1
    15     5    31    1
    16    31    32    1
    17    32    33   ar
    18    33    34   ar
    19    34    35   ar
    20    35    36    1
    21    35    37   ar
    22    37    38   ar
    23     5     6    1
    24     6     7    1
    25     1    20    1
    26    20    21   ar
    27    21    22   ar
    28    22    23   ar
    29    23    24   ar
    30    24    25   ar
    31    25    26    1
    32    26    27   am
    33    27    28    1
    34    27    29    2
    35    11    12   ar
    36    12    13   ar
    37    13     8   ar
    38     7     2    1
    39    25    20   ar
    40    38    32   ar
    41    26    30    1
@<TRIPOS>MOLECULE
*****
 38 41 0 0 0
SMALL
GASTEIGER

@<TRIPOS>ATOM
      1 C         141.3176  140.8459  162.4118 C.2     1  UNL1       -0.0066
      2 C         140.9324  140.1829  161.1226 C.2     1  UNL1       -0.0414
      3 C         139.8514  139.1430  161.1077 C.3     1  UNL1        0.0394
      4 C         139.4662  138.4801  159.8185 C.3     1  UNL1        0.0767
      5 N         140.1619  138.8570  158.5442 N.3     1  UNL1       -0.2683
      6 C         141.2428  139.8968  158.5590 C.3     1  UNL1        0.0767
      7 C         141.6281  140.5598  159.8483 C.3     1  UNL1        0.0394
      8 C         139.2304  139.7152  166.2348 C.ar    1  UNL1        0.0536
      9 C         138.6140  140.7268  165.3146 C.ar    1  UNL1        0.0045
     10 C         139.3097  141.1037  164.0403 C.ar    1  UNL1        0.0001
     11 C         140.6219  140.4690  163.6861 C.ar    1  UNL1       -0.0006
     12 C         141.2383  139.4574  164.6063 C.ar    1  UNL1        0.0001
     13 C         140.5425  139.0805  165.8806 C.ar    1  UNL1        0.0045
     14 N         138.8955  140.0261  168.7924 N.am    1  UNL1       -0.2743
     15 C         138.1998  139.6492  170.0667 C.3     1  UNL1        0.1152
     16 C         138.5347  139.3383  167.5091 C.2     1  UNL1        0.2491
     17 O         137.4782  138.2736  167.5002 O.2     1  UNL1       -0.2699
     18 C         141.3608  140.7463  169.1843 C.3     1  UNL1        0.0233
     19 C         139.9521  141.0908  168.8013 C.3     1  UNL1        0.0938
     20 C         142.3985  141.8857  162.4267 C.ar    1  UNL1        0.0129
     21 C         143.8272  141.4795  162.6357 C.ar    1  UNL1        0.0012
     22 C         144.9082  142.5194  162.6505 C.ar    1  UNL1        0.0001
     23 C         144.5604  143.9655  162.4564 C.ar    1  UNL1        0.0013
     24 C         143.1316  144.3718  162.2474 C.ar    1  UNL1        0.0147
     25 C         142.0507  143.3320  162.2325 C.ar    1  UNL1        0.0502
     26 N         140.6220  143.7382  162.0235 N.am    1  UNL1       -0.2839
     27 C         139.8625  144.4063  163.1311 C.2     1  UNL1        0.2266
     28 C         138.4338  144.8125  162.9221 C.3     1  UNL1        0.0949
     29 O         140.5318  144.6681  164.4478 O.2     1  UNL1       -0.2748
     30 H         140.1827  143.5664  161.1594 H       1  UNL1        0.1549
     31 C         139.7767  138.1939  157.2549 C.3     1  UNL1        0.0992
     32 C         140.6792  137.1645  156.6420 C.ar    1  UNL1       -0.0060
     33 C         140.2477  136.4277  155.4088 C.ar    1  UNL1       -0.0006
     34 C         141.1502  135.3982  154.7959 C.ar    1  UNL1        0.0294
     35 C         142.4842  135.1056  155.4162 C.ar    1  UNL1        0.1401
     36 F         143.3867  134.0761  154.8033 F       1  UNL1       -0.2042
     37 C         142.9157  135.8424  156.6495 C.ar    1  UNL1        0.0294
     38 C         142.0131  136.8719  157.2624 C.ar    1  UNL1       -0.0006
@<TRIPOS>BOND
     1    18    19    1
     2    19    14    1
     3    14    15    1
     4    14    16   am
     5    16    17    2
     6    16     8    1
     7     8     9   ar
     8     9    10   ar
     9    10    11   ar
    10    11     1    1
    11     1     2    2
    12     2     3    1
    13     3     4    1
    14     4     5    1
    15     5    31    1
    16    31    32    1
    17    32    33   ar
    18    33    34   ar
    19    34    35   ar
    20    35    36    1
    21    35    37   ar
    22    37    38   ar
    23     5     6    1
    24     6     7    1
    25     1    20    1
    26    20    21   ar
    27    21    22   ar
    28    22    23   ar
    29    23    24   ar
    30    24    25   ar
    31    25    26    1
    32    26    27   am
    33    27    28    1
    34    27    29    2
    35    11    12   ar
    36    12    13   ar
    37    13     8   ar
    38     7     2    1
    39    25    20   ar
    40    38    32   ar
    41    26    30    1
@<TRIPOS>MOLECULE
*****
 38 41 0 0 0
SMALL
GASTEIGER

@<TRIPOS>ATOM
      1 C         141.3130  141.7508  161.1460 C.2     1  UNL1       -0.0066
      2 C         141.0789  142.0081  162.6051 C.2     1  UNL1       -0.0414
      3 C         140.5394  143.3332  163.0558 C.3     1  UNL1        0.0394
      4 C         140.3053  143.5906  164.5149 C.3     1  UNL1        0.0767
      5 N         140.6107  142.5229  165.5233 N.3     1  UNL1       -0.2683
      6 C         141.1502  141.1979  165.0726 C.3     1  UNL1        0.0767
      7 C         141.3844  140.9405  163.6134 C.3     1  UNL1        0.0394
      8 C         140.3968  144.9537  158.1209 C.ar    1  UNL1        0.0536
      9 C         141.6485  145.0349  158.9433 C.ar    1  UNL1        0.0045
     10 C         141.9539  143.9673  159.9517 C.ar    1  UNL1        0.0001
     11 C         141.0076  142.8184  160.1376 C.ar    1  UNL1       -0.0006
     12 C         139.7559  142.7372  159.3151 C.ar    1  UNL1        0.0001
     13 C         139.4505  143.8049  158.3068 C.ar    1  UNL1        0.0045
     14 N         140.5400  145.8602  155.6903 N.am    1  UNL1       -0.2743
     15 C         140.2346  146.9279  154.6819 C.3     1  UNL1        0.1152
     16 C         140.0913  146.0214  157.1125 C.2     1  UNL1        0.2491
     17 O         139.3373  147.2502  157.5263 O.2     1  UNL1       -0.2699
     18 C         142.7914  144.6627  155.1931 C.3     1  UNL1        0.0233
     19 C         141.2941  144.6313  155.2764 C.3     1  UNL1        0.0938
     20 C         141.8526  140.4257  160.6953 C.ar    1  UNL1        0.0129
     21 C         140.9342  139.4122  160.0794 C.ar    1  UNL1        0.0012
     22 C         141.4738  138.0872  159.6287 C.ar    1  UNL1        0.0001
     23 C         142.9317  137.7756  159.7940 C.ar    1  UNL1        0.0013
     24 C         143.8501  138.7891  160.4099 C.ar    1  UNL1        0.0147
     25 C         143.3106  140.1142  160.8606 C.ar    1  UNL1        0.0502
     26 N         144.2290  141.1277  161.4765 N.am    1  UNL1       -0.2839
     27 C         144.8881  140.8404  162.7929 C.2     1  UNL1        0.2266
     28 C         145.8065  141.8539  163.4088 C.3     1  UNL1        0.0949
     29 O         144.6288  139.5396  163.4935 O.2     1  UNL1       -0.2748
     30 H         144.3991  141.9814  161.0167 H       1  UNL1        0.1549
     31 C         140.3765  142.7804  166.9824 C.3     1  UNL1        0.0992
     32 C         141.1259  141.9893  168.0132 C.ar    1  UNL1       -0.0060
     33 C         142.5154  142.3955  168.4062 C.ar    1  UNL1       -0.0006
     34 C         143.2647  141.6045  169.4371 C.ar    1  UNL1        0.0294
     35 C         142.6246  140.4072  170.0750 C.ar    1  UNL1        0.1401
     36 F         143.3740  139.6161  171.1058 F       1  UNL1       -0.2042
     37 C         141.2352  140.0010  169.6820 C.ar    1  UNL1        0.0294
     38 C         140.4858  140.7921  168.6511 C.ar    1  UNL1       -0.0006
@<TRIPOS>BOND
     1    18    19    1
     2    19    14    1
     3    14    15    1
     4    14    16   am
     5    16    17    2
     6    16     8    1
     7     8     9   ar
     8     9    10   ar
     9    10    11   ar
    10    11     1    1
    11     1     2    2
    12     2     3    1
    13     3     4    1
    14     4     5    1
    15     5    31    1
    16    31    32    1
    17    32    33   ar
    18    33    34   ar
    19    34    35   ar
    20    35    36    1
    21    35    37   ar
    22    37    38   ar
    23     5     6    1
    24     6     7    1
    25     1    20    1
    26    20    21   ar
    27    21    22   ar
    28    22    23   ar
    29    23    24   ar
    30    24    25   ar
    31    25    26    1
    32    26    27   am
    33    27    28    1
    34    27    29    2
    35    11    12   ar
    36    12    13   ar
    37    13     8   ar
    38     7     2    1
    39    25    20   ar
    40    38    32   ar
    41    26    30    1
@<TRIPOS>MOLECULE
*****
 38 41 0 0 0
SMALL
GASTEIGER

@<TRIPOS>ATOM
      1 C         141.2508  141.1928  158.9215 C.2     1  UNL1       -0.0066
      2 C         141.9216  140.0760  158.1781 C.2     1  UNL1       -0.0414
      3 C         141.9632  138.6988  158.7712 C.3     1  UNL1        0.0394
      4 C         142.6340  137.5820  158.0278 C.3     1  UNL1        0.0767
      5 N         143.2633  137.8423  156.6913 N.3     1  UNL1       -0.2683
      6 C         143.2217  139.2194  156.0981 C.3     1  UNL1        0.0767
      7 C         142.5508  140.3363  156.8415 C.3     1  UNL1        0.0394
      8 C         139.3631  140.4120  162.9311 C.ar    1  UNL1        0.0536
      9 C         138.5240  140.3807  161.6882 C.ar    1  UNL1        0.0045
     10 C         139.1532  140.6410  160.3517 C.ar    1  UNL1        0.0001
     11 C         140.6216  140.9326  160.2580 C.ar    1  UNL1       -0.0006
     12 C         141.4607  140.9638  161.5009 C.ar    1  UNL1        0.0001
     13 C         140.8315  140.7035  162.8374 C.ar    1  UNL1        0.0045
     14 N         138.7727  138.7739  164.8593 N.am    1  UNL1       -0.2743
     15 C         138.1435  138.5136  166.1959 C.3     1  UNL1        0.1152
     16 C         138.7339  140.1517  164.2676 C.2     1  UNL1        0.2491
     17 O         138.0658  141.2692  165.0125 O.2     1  UNL1       -0.2699
     18 C         140.8638  137.2952  164.4222 C.3     1  UNL1        0.0233
     19 C         139.4408  137.6563  164.1145 C.3     1  UNL1        0.0938
     20 C         141.2092  142.5699  158.3284 C.ar    1  UNL1        0.0129
     21 C         140.0828  142.9609  157.4183 C.ar    1  UNL1        0.0012
     22 C         140.0412  144.3381  156.8251 C.ar    1  UNL1        0.0001
     23 C         141.1261  145.3242  157.1421 C.ar    1  UNL1        0.0013
     24 C         142.2525  144.9333  158.0522 C.ar    1  UNL1        0.0147
     25 C         142.2941  143.5562  158.6453 C.ar    1  UNL1        0.0502
     26 N         143.4206  143.1652  159.5554 N.am    1  UNL1       -0.2839
     27 C         143.4334  143.6381  160.9788 C.2     1  UNL1        0.2266
     28 C         144.5599  143.2472  161.8889 C.3     1  UNL1        0.0949
     29 O         142.3197  144.5020  161.4922 O.2     1  UNL1       -0.2748
     30 H         144.1515  142.5983  159.2185 H       1  UNL1        0.1549
     31 C         143.9341  136.7254  155.9478 C.3     1  UNL1        0.0992
     32 C         143.2669  135.3860  155.8449 C.ar    1  UNL1       -0.0060
     33 C         142.1956  135.1585  154.8199 C.ar    1  UNL1       -0.0006
     34 C         141.5284  133.8190  154.7169 C.ar    1  UNL1        0.0294
     35 C         141.9325  132.7069  155.6389 C.ar    1  UNL1        0.1401
     36 F         141.2653  131.3675  155.5359 F       1  UNL1       -0.2042
     37 C         143.0038  132.9344  156.6639 C.ar    1  UNL1        0.0294
     38 C         143.6710  134.2740  156.7669 C.ar    1  UNL1       -0.0006
@<TRIPOS>BOND
     1    18    19    1
     2    19    14    1
     3    14    15    1
     4    14    16   am
     5    16    17    2
     6    16     8    1
     7     8     9   ar
     8     9    10   ar
     9    10    11   ar
    10    11     1    1
    11     1     2    2
    12     2     3    1
    13     3     4    1
    14     4     5    1
    15     5    31    1
    16    31    32    1
    17    32    33   ar
    18    33    34   ar
    19    34    35   ar
    20    35    36    1
    21    35    37   ar
    22    37    38   ar
    23     5     6    1
    24     6     7    1
    25     1    20    1
    26    20    21   ar
    27    21    22   ar
    28    22    23   ar
    29    23    24   ar
    30    24    25   ar
    31    25    26    1
    32    26    27   am
    33    27    28    1
    34    27    29    2
    35    11    12   ar
    36    12    13   ar
    37    13     8   ar
    38     7     2    1
    39    25    20   ar
    40    38    32   ar
    41    26    30    1
@<TRIPOS>MOLECULE
*****
 38 41 0 0 0
SMALL
GASTEIGER

@<TRIPOS>ATOM
      1 C         142.8299  138.1841  156.9883 C.2     1  UNL1       -0.0066
      2 C         143.6494  139.3320  156.4778 C.2     1  UNL1       -0.0414
      3 C         143.7977  140.5742  157.3054 C.3     1  UNL1        0.0394
      4 C         144.6173  141.7221  156.7949 C.3     1  UNL1        0.0767
      5 N         145.2885  141.6278  155.4568 N.3     1  UNL1       -0.2683
      6 C         145.1402  140.3857  154.6291 C.3     1  UNL1        0.0767
      7 C         144.3206  139.2377  155.1396 C.3     1  UNL1        0.0394
      8 C         140.8162  138.4668  161.0026 C.ar    1  UNL1        0.0536
      9 C         142.2032  137.9055  160.8972 C.ar    1  UNL1        0.0045
     10 C         142.8744  137.8113  159.5590 C.ar    1  UNL1        0.0001
     11 C         142.1587  138.2783  158.3264 C.ar    1  UNL1       -0.0006
     12 C         140.7717  138.8397  158.4318 C.ar    1  UNL1        0.0001
     13 C         140.1005  138.9339  159.7700 C.ar    1  UNL1        0.0045
     14 N         140.3147  139.7928  163.1798 N.am    1  UNL1       -0.2743
     15 C         139.6434  139.8871  164.5180 C.3     1  UNL1        0.1152
     16 C         140.1450  138.5611  162.3408 C.2     1  UNL1        0.2491
     17 O         139.3041  137.4237  162.8398 O.2     1  UNL1       -0.2699
     18 C         140.5123  142.0809  161.9652 C.3     1  UNL1        0.0233
     19 C         141.1556  140.9303  162.6808 C.3     1  UNL1        0.0938
     20 C         142.6816  136.9419  156.1606 C.ar    1  UNL1        0.0129
     21 C         143.5776  135.7646  156.4077 C.ar    1  UNL1        0.0012
     22 C         143.4293  134.5224  155.5800 C.ar    1  UNL1        0.0001
     23 C         142.3849  134.4576  154.5053 C.ar    1  UNL1        0.0013
     24 C         141.4889  135.6348  154.2582 C.ar    1  UNL1        0.0147
     25 C         141.6372  136.8770  155.0859 C.ar    1  UNL1        0.0502
     26 N         140.7411  138.0543  154.8388 N.am    1  UNL1       -0.2839
     27 C         139.3027  138.0036  155.2609 C.2     1  UNL1        0.2266
     28 C         138.4066  139.1809  155.0138 C.3     1  UNL1        0.0949
     29 O         138.7602  136.7757  155.9302 O.2     1  UNL1       -0.2748
     30 H         141.0971  138.8603  154.3995 H       1  UNL1        0.1549
     31 C         146.1081  142.7758  154.9463 C.3     1  UNL1        0.0992
     32 C         147.5707  142.5893  154.6711 C.ar    1  UNL1       -0.0060
     33 C         148.1778  143.1587  153.4232 C.ar    1  UNL1       -0.0006
     34 C         149.6404  142.9722  153.1481 C.ar    1  UNL1        0.0294
     35 C         150.4961  142.2161  154.1209 C.ar    1  UNL1        0.1401
     36 F         151.9588  142.0295  153.8457 F       1  UNL1       -0.2042
     37 C         149.8891  141.6466  155.3687 C.ar    1  UNL1        0.0294
     38 C         148.4263  141.8332  155.6439 C.ar    1  UNL1       -0.0006
@<TRIPOS>BOND
     1    18    19    1
     2    19    14    1
     3    14    15    1
     4    14    16   am
     5    16    17    2
     6    16     8    1
     7     8     9   ar
     8     9    10   ar
     9    10    11   ar
    10    11     1    1
    11     1     2    2
    12     2     3    1
    13     3     4    1
    14     4     5    1
    15     5    31    1
    16    31    32    1
    17    32    33   ar
    18    33    34   ar
    19    34    35   ar
    20    35    36    1
    21    35    37   ar
    22    37    38   ar
    23     5     6    1
    24     6     7    1
    25     1    20    1
    26    20    21   ar
    27    21    22   ar
    28    22    23   ar
    29    23    24   ar
    30    24    25   ar
    31    25    26    1
    32    26    27   am
    33    27    28    1
    34    27    29    2
    35    11    12   ar
    36    12    13   ar
    37    13     8   ar
    38     7     2    1
    39    25    20   ar
    40    38    32   ar
    41    26    30    1
@<TRIPOS>MOLECULE
*****
 38 41 0 0 0
SMALL
GASTEIGER

@<TRIPOS>ATOM
      1 C         141.7627  140.5089  159.9108 C.2     1  UNL1       -0.0066
      2 C         142.0314  140.1495  161.3421 C.2     1  UNL1       -0.0414
      3 C         142.2346  138.7147  161.7297 C.3     1  UNL1        0.0394
      4 C         142.5033  138.3553  163.1610 C.3     1  UNL1        0.0767
      5 N         142.5689  139.4306  164.2047 N.3     1  UNL1       -0.2683
      6 C         142.3658  140.8654  163.8172 C.3     1  UNL1        0.0767
      7 C         142.0971  141.2248  162.3858 C.3     1  UNL1        0.0394
      8 C         141.5658  137.2829  156.7797 C.ar    1  UNL1        0.0536
      9 C         142.8674  137.9708  157.0670 C.ar    1  UNL1        0.0045
     10 C         142.9330  139.0461  158.1107 C.ar    1  UNL1        0.0001
     11 C         141.6971  139.4335  158.8671 C.ar    1  UNL1       -0.0006
     12 C         140.3955  138.7456  158.5799 C.ar    1  UNL1        0.0001
     13 C         140.3299  137.6703  157.5362 C.ar    1  UNL1        0.0045
     14 N         142.2329  134.9153  155.9434 N.am    1  UNL1       -0.2743
     15 C         142.1673  133.8399  154.8997 C.3     1  UNL1        0.1152
     16 C         141.5002  136.2075  155.7360 C.2     1  UNL1        0.2491
     17 O         140.7018  136.4245  154.4848 O.2     1  UNL1       -0.2699
     18 C         144.0275  133.5790  157.2641 C.3     1  UNL1        0.0233
     19 C         143.0313  134.6983  157.1947 C.3     1  UNL1        0.0938
     20 C         141.5596  141.9436  159.5233 C.ar    1  UNL1        0.0129
     21 C         142.6899  142.7253  158.9221 C.ar    1  UNL1        0.0012
     22 C         142.4867  144.1602  158.5346 C.ar    1  UNL1        0.0001
     23 C         141.1533  144.8132  158.7482 C.ar    1  UNL1        0.0013
     24 C         140.0231  144.0314  159.3494 C.ar    1  UNL1        0.0147
     25 C         140.2262  142.5967  159.7369 C.ar    1  UNL1        0.0502
     26 N         139.0959  141.8149  160.3381 N.am    1  UNL1       -0.2839
     27 C         138.6238  142.1267  161.7272 C.2     1  UNL1        0.2266
     28 C         137.4935  141.3450  162.3284 C.3     1  UNL1        0.0949
     29 O         139.2820  143.2203  162.5154 O.2     1  UNL1       -0.2748
     30 H         138.6639  141.0972  159.8208 H       1  UNL1        0.1549
     31 C         142.8377  139.0712  165.6360 C.3     1  UNL1        0.0992
     32 C         141.8410  139.4279  166.6988 C.ar    1  UNL1       -0.0060
     33 C         142.3069  139.7348  168.0912 C.ar    1  UNL1       -0.0006
     34 C         141.3102  140.0916  169.1539 C.ar    1  UNL1        0.0294
     35 C         139.8477  140.1414  168.8242 C.ar    1  UNL1        0.1401
     36 F         138.8511  140.4981  169.8870 F       1  UNL1       -0.2042
     37 C         139.3819  139.8345  167.4318 C.ar    1  UNL1        0.0294
     38 C         140.3786  139.4777  166.3691 C.ar    1  UNL1       -0.0006
@<TRIPOS>BOND
     1    18    19    1
     2    19    14    1
     3    14    15    1
     4    14    16   am
     5    16    17    2
     6    16     8    1
     7     8     9   ar
     8     9    10   ar
     9    10    11   ar
    10    11     1    1
    11     1     2    2
    12     2     3    1
    13     3     4    1
    14     4     5    1
    15     5    31    1
    16    31    32    1
    17    32    33   ar
    18    33    34   ar
    19    34    35   ar
    20    35    36    1
    21    35    37   ar
    22    37    38   ar
    23     5     6    1
    24     6     7    1
    25     1    20    1
    26    20    21   ar
    27    21    22   ar
    28    22    23   ar
    29    23    24   ar
    30    24    25   ar
    31    25    26    1
    32    26    27   am
    33    27    28    1
    34    27    29    2
    35    11    12   ar
    36    12    13   ar
    37    13     8   ar
    38     7     2    1
    39    25    20   ar
    40    38    32   ar
    41    26    30    1
@<TRIPOS>MOLECULE
*****
 38 41 0 0 0
SMALL
GASTEIGER

@<TRIPOS>ATOM
      1 C         139.4790  140.3738  158.4248 C.2     1  UNL1       -0.0066
      2 C         140.4710  139.4194  157.8290 C.2     1  UNL1       -0.0414
      3 C         141.2062  138.4541  158.7109 C.3     1  UNL1        0.0394
      4 C         142.1982  137.4998  158.1151 C.3     1  UNL1        0.0767
      5 N         142.4550  137.5106  156.6372 N.3     1  UNL1       -0.2683
      6 C         141.7198  138.4758  155.7553 C.3     1  UNL1        0.0767
      7 C         140.7278  139.4302  156.3512 C.3     1  UNL1        0.0394
      8 C         138.7086  140.3413  162.8583 C.ar    1  UNL1        0.0536
      9 C         140.0411  140.7855  162.3318 C.ar    1  UNL1        0.0045
     10 C         140.2979  140.7963  160.8540 C.ar    1  UNL1        0.0001
     11 C         139.2222  140.3630  159.9027 C.ar    1  UNL1       -0.0006
     12 C         137.8898  139.9188  160.4291 C.ar    1  UNL1        0.0001
     13 C         137.6330  139.9080  161.9069 C.ar    1  UNL1        0.0045
     14 N         138.6311  139.0638  165.1192 N.am    1  UNL1       -0.2743
     15 C         138.3743  139.0530  166.5971 C.3     1  UNL1        0.1152
     16 C         138.4518  140.3305  164.3361 C.2     1  UNL1        0.2491
     17 O         138.0158  141.5864  165.0308 O.2     1  UNL1       -0.2699
     18 C         140.5169  137.4230  164.4109 C.3     1  UNL1        0.0233
     19 C         139.0672  137.8079  164.4246 C.3     1  UNL1        0.0938
     20 C         138.7439  141.3390  157.5429 C.ar    1  UNL1        0.0129
     21 C         137.4231  140.9529  156.9458 C.ar    1  UNL1        0.0012
     22 C         136.6879  141.9182  156.0638 C.ar    1  UNL1        0.0001
     23 C         137.2735  143.2694  155.7790 C.ar    1  UNL1        0.0013
     24 C         138.5943  143.6555  156.3761 C.ar    1  UNL1        0.0147
     25 C         139.3294  142.6903  157.2580 C.ar    1  UNL1        0.0502
     26 N         140.6502  143.0763  157.8551 N.am    1  UNL1       -0.2839
     27 C         140.6962  143.8173  159.1585 C.2     1  UNL1        0.2266
     28 C         142.0169  144.2033  159.7556 C.3     1  UNL1        0.0949
     29 O         139.4213  144.1722  159.8648 O.2     1  UNL1       -0.2748
     30 H         141.4869  142.8434  157.3916 H       1  UNL1        0.1549
     31 C         143.4471  136.5561  156.0414 C.3     1  UNL1        0.0992
     32 C         143.1565  135.0847  156.0265 C.ar    1  UNL1       -0.0060
     33 C         142.2992  134.5003  154.9432 C.ar    1  UNL1       -0.0006
     34 C         142.0086  133.0289  154.9284 C.ar    1  UNL1        0.0294
     35 C         142.5753  132.1416  155.9969 C.ar    1  UNL1        0.1401
     36 F         142.2848  130.6701  155.9820 F       1  UNL1       -0.2042
     37 C         143.4326  132.7259  157.0802 C.ar    1  UNL1        0.0294
     38 C         143.7232  134.1975  157.0950 C.ar    1  UNL1       -0.0006
@<TRIPOS>BOND
     1    18    19    1
     2    19    14    1
     3    14    15    1
     4    14    16   am
     5    16    17    2
     6    16     8    1
     7     8     9   ar
     8     9    10   ar
     9    10    11   ar
    10    11     1    1
    11     1     2    2
    12     2     3    1
    13     3     4    1
    14     4     5    1
    15     5    31    1
    16    31    32    1
    17    32    33   ar
    18    33    34   ar
    19    34    35   ar
    20    35    36    1
    21    35    37   ar
    22    37    38   ar
    23     5     6    1
    24     6     7    1
    25     1    20    1
    26    20    21   ar
    27    21    22   ar
    28    22    23   ar
    29    23    24   ar
    30    24    25   ar
    31    25    26    1
    32    26    27   am
    33    27    28    1
    34    27    29    2
    35    11    12   ar
    36    12    13   ar
    37    13     8   ar
    38     7     2    1
    39    25    20   ar
    40    38    32   ar
    41    26    30    1
