@<TRIPOS>MOLECULE
*****
 32 36 0 0 0
SMALL
GASTEIGER

@<TRIPOS>ATOM
      1 C         144.7702  139.5773  163.6167 C.3     1  UNL1        0.0730
      2 N         144.4581  141.0276  163.3945 N.3     1  UNL1       -0.2724
      3 C         145.3489  142.0278  162.7193 C.3     1  UNL1        0.0724
      4 C         144.6417  143.3506  162.7160 C.3     1  UNL1        0.0214
      5 C         143.7075  144.5152  162.8601 C.3     1  UNL1        0.0072
      6 C         143.3138  143.1680  163.3892 C.3     1  UNL1        0.0350
      7 C         143.2003  141.7323  163.8085 C.3     1  UNL1        0.0761
      8 C         141.9737  143.5910  163.9138 C.ar    1  UNL1       -0.0215
      9 C         141.4535  143.0121  165.1960 C.ar    1  UNL1       -0.0043
     10 C         140.1133  143.4351  165.7207 C.ar    1  UNL1        0.0035
     11 C         139.2935  144.4370  164.9631 C.ar    1  UNL1        0.0714
     12 C         139.8138  145.0160  163.6808 C.ar    1  UNL1        0.0035
     13 C         141.1539  144.5930  163.1562 C.ar    1  UNL1       -0.0043
     14 C         137.9534  144.8601  165.4877 C.3     1  UNL1        0.4186
     15 F         136.6134  145.2831  166.0123 F       1  UNL1       -0.1659
     16 F         138.6233  145.5689  166.6273 F       1  UNL1       -0.1659
     17 F         137.2835  144.1512  164.3481 F       1  UNL1       -0.1659
     18 C         143.8724  138.5207  163.0445 C.3     1  UNL1        0.0294
     19 C         142.3987  138.5580  163.3216 C.3     1  UNL1        0.0666
     20 S         141.8584  137.9631  164.5882 S.3     1  UNL1       -0.0756
     21 C         139.5813  139.8381  165.9839 C.3     1  UNL1        0.1340
     22 N         140.9531  139.5660  166.5263 N.ar    1  UNL1       -0.2884
     23 C         141.9998  138.7041  165.8847 C.ar    1  UNL1        0.1932
     24 N         143.2126  138.7133  166.7673 N.ar    1  UNL1       -0.1221
     25 N         142.9155  139.5808  167.9543 N.ar    1  UNL1       -0.1282
     26 C         141.5190  140.1078  167.8053 C.ar    1  UNL1        0.1684
     27 C         140.8125  141.0171  168.7667 C.ar    1  UNL1        0.0585
     28 C         141.2714  142.4354  168.9328 C.ar    1  UNL1        0.0272
     29 C         140.5649  143.3446  169.8942 C.ar    1  UNL1        0.1223
     30 N         139.3995  142.8354  170.6895 N.ar    1  UNL1       -0.1464
     31 N         138.9405  141.4171  170.5234 N.ar    1  UNL1       -0.1463
     32 C         139.6470  140.5079  169.5620 C.ar    1  UNL1        0.1252
@<TRIPOS>BOND
     1    21    22    1
     2    22    23   ar
     3    23    20    1
     4    20    19    1
     5    19    18    1
     6    18     1    1
     7     1     2    1
     8     2     3    1
     9     4     3    1
    10     4     5    1
    11     5     6    1
    12     6     8    1
    13     8     9   ar
    14     9    10   ar
    15    10    11   ar
    16    11    14    1
    17    14    15    1
    18    14    16    1
    19    14    17    1
    20    11    12   ar
    21    12    13   ar
    22     6     7    1
    23    23    24   ar
    24    24    25   ar
    25    25    26   ar
    26    26    27    1
    27    27    28   ar
    28    28    29   ar
    29    29    30   ar
    30    30    31   ar
    31    31    32   ar
    32    26    22   ar
    33    32    27   ar
    34     7     2    1
    35     6     4    1
    36    13     8   ar
@<TRIPOS>MOLECULE
*****
 32 36 0 0 0
SMALL
GASTEIGER

@<TRIPOS>ATOM
      1 C         143.8726  143.9668  163.9642 C.3     1  UNL1        0.0730
      2 N         142.3856  143.9756  164.1609 N.3     1  UNL1       -0.2724
      3 C         141.4702  145.1375  163.9121 C.3     1  UNL1        0.0724
      4 C         140.0717  144.7041  164.2384 C.3     1  UNL1        0.0214
      5 C         138.8095  143.9968  164.6340 C.3     1  UNL1        0.0072
      6 C         140.1229  143.2742  164.6889 C.3     1  UNL1        0.0350
      7 C         141.5529  142.8240  164.6410 C.3     1  UNL1        0.0761
      8 C         139.5647  141.9716  165.1804 C.ar    1  UNL1       -0.0215
      9 C         138.5458  141.2356  164.3618 C.ar    1  UNL1       -0.0043
     10 C         137.9877  139.9329  164.8533 C.ar    1  UNL1        0.0035
     11 C         138.4484  139.3663  166.1635 C.ar    1  UNL1        0.0714
     12 C         139.4674  140.1023  166.9822 C.ar    1  UNL1        0.0035
     13 C         140.0255  141.4049  166.4906 C.ar    1  UNL1       -0.0043
     14 C         137.8903  138.0636  166.6551 C.3     1  UNL1        0.4186
     15 F         137.3322  136.7610  167.1466 F       1  UNL1       -0.1659
     16 F         138.4531  137.3682  165.4511 F       1  UNL1       -0.1659
     17 F         137.3275  138.7591  167.8590 F       1  UNL1       -0.1659
     18 C         144.7189  142.9615  164.6876 C.3     1  UNL1        0.0294
     19 C         145.5059  141.9469  163.9121 C.3     1  UNL1        0.0666
     20 S         145.1194  140.4985  163.9643 S.3     1  UNL1       -0.0756
     21 C         143.6348  140.9171  161.0885 C.3     1  UNL1        0.1340
     22 N         143.0355  140.2760  162.3051 N.ar    1  UNL1       -0.2884
     23 C         143.7179  140.0836  163.6269 C.ar    1  UNL1        0.1932
     24 N         142.7528  139.4036  164.5521 N.ar    1  UNL1       -0.1221
     25 N         141.4740  139.1757  163.8021 N.ar    1  UNL1       -0.1282
     26 C         141.6487  139.7149  162.4133 C.ar    1  UNL1        0.1684
     27 C         140.6175  139.6962  161.3241 C.ar    1  UNL1        0.0585
     28 C         139.7464  140.8957  161.0953 C.ar    1  UNL1        0.0272
     29 C         138.7153  140.8770  160.0060 C.ar    1  UNL1        0.1223
     30 N         138.5553  139.6588  159.1456 N.ar    1  UNL1       -0.1464
     31 N         139.4264  138.4593  159.3744 N.ar    1  UNL1       -0.1463
     32 C         140.4575  138.4780  160.4636 C.ar    1  UNL1        0.1252
@<TRIPOS>BOND
     1    21    22    1
     2    22    23   ar
     3    23    20    1
     4    20    19    1
     5    19    18    1
     6    18     1    1
     7     1     2    1
     8     2     3    1
     9     4     3    1
    10     4     5    1
    11     5     6    1
    12     6     8    1
    13     8     9   ar
    14     9    10   ar
    15    10    11   ar
    16    11    14    1
    17    14    15    1
    18    14    16    1
    19    14    17    1
    20    11    12   ar
    21    12    13   ar
    22     6     7    1
    23    23    24   ar
    24    24    25   ar
    25    25    26   ar
    26    26    27    1
    27    27    28   ar
    28    28    29   ar
    29    29    30   ar
    30    30    31   ar
    31    31    32   ar
    32    26    22   ar
    33    32    27   ar
    34     7     2    1
    35     6     4    1
    36    13     8   ar
@<TRIPOS>MOLECULE
*****
 32 36 0 0 0
SMALL
GASTEIGER

@<TRIPOS>ATOM
      1 C         141.7739  144.5883  161.4809 C.3     1  UNL1        0.0730
      2 N         140.9940  144.4459  162.7543 N.3     1  UNL1       -0.2724
      3 C         139.7955  145.2567  163.1494 C.3     1  UNL1        0.0724
      4 C         139.3364  144.7796  164.4954 C.3     1  UNL1        0.0214
      5 C         139.1184  144.1036  165.8166 C.3     1  UNL1        0.0072
      6 C         140.2513  143.6741  164.9322 C.3     1  UNL1        0.0350
      7 C         141.2757  143.4679  163.8561 C.3     1  UNL1        0.0761
      8 C         140.7699  142.6062  165.8491 C.ar    1  UNL1       -0.0215
      9 C         141.6062  141.4882  165.3009 C.ar    1  UNL1       -0.0043
     10 C         142.1248  140.4202  166.2178 C.ar    1  UNL1        0.0035
     11 C         141.8070  140.4704  167.6829 C.ar    1  UNL1        0.0714
     12 C         140.9707  141.5886  168.2311 C.ar    1  UNL1        0.0035
     13 C         140.4521  142.6564  167.3142 C.ar    1  UNL1       -0.0043
     14 C         142.3256  139.4026  168.5998 C.3     1  UNL1        0.4186
     15 F         142.8441  138.3347  169.5167 F       1  UNL1       -0.1659
     16 F         141.3703  139.8532  169.6649 F       1  UNL1       -0.1659
     17 F         143.2808  138.9519  167.5348 F       1  UNL1       -0.1659
     18 C         141.1490  145.2501  160.2887 C.3     1  UNL1        0.0294
     19 C         140.0889  144.5355  159.5041 C.3     1  UNL1        0.0666
     20 S         139.9461  143.0467  159.6190 S.3     1  UNL1       -0.0756
     21 C         140.8544  140.5255  161.4812 C.3     1  UNL1        0.1340
     22 N         139.5727  141.2951  161.6033 N.ar    1  UNL1       -0.2884
     23 C         139.1552  142.4540  160.7474 C.ar    1  UNL1        0.1932
     24 N         137.8080  142.9162  161.2179 N.ar    1  UNL1       -0.1221
     25 N         137.3928  142.0429  162.3645 N.ar    1  UNL1       -0.1282
     26 C         138.4835  141.0411  162.6028 C.ar    1  UNL1        0.1684
     27 C         138.4847  139.9726  163.6557 C.ar    1  UNL1        0.0585
     28 C         138.1867  140.3257  165.0828 C.ar    1  UNL1        0.0272
     29 C         138.1879  139.2573  166.1356 C.ar    1  UNL1        0.1223
     30 N         138.4871  137.8358  165.7614 N.ar    1  UNL1       -0.1464
     31 N         138.7850  137.4828  164.3343 N.ar    1  UNL1       -0.1463
     32 C         138.7838  138.5512  163.2815 C.ar    1  UNL1        0.1252
@<TRIPOS>BOND
     1    21    22    1
     2    22    23   ar
     3    23    20    1
     4    20    19    1
     5    19    18    1
     6    18     1    1
     7     1     2    1
     8     2     3    1
     9     4     3    1
    10     4     5    1
    11     5     6    1
    12     6     8    1
    13     8     9   ar
    14     9    10   ar
    15    10    11   ar
    16    11    14    1
    17    14    15    1
    18    14    16    1
    19    14    17    1
    20    11    12   ar
    21    12    13   ar
    22     6     7    1
    23    23    24   ar
    24    24    25   ar
    25    25    26   ar
    26    26    27    1
    27    27    28   ar
    28    28    29   ar
    29    29    30   ar
    30    30    31   ar
    31    31    32   ar
    32    26    22   ar
    33    32    27   ar
    34     7     2    1
    35     6     4    1
    36    13     8   ar
@<TRIPOS>MOLECULE
*****
 32 36 0 0 0
SMALL
GASTEIGER

@<TRIPOS>ATOM
      1 C         143.0388  141.1394  161.2987 C.3     1  UNL1        0.0730
      2 N         143.2998  140.4866  162.6237 N.3     1  UNL1       -0.2724
      3 C         144.2337  139.3395  162.8728 C.3     1  UNL1        0.0724
      4 C         144.1838  139.0101  164.3353 C.3     1  UNL1        0.0214
      5 C         143.9273  138.9165  165.8102 C.3     1  UNL1        0.0072
      6 C         143.2190  139.9537  164.9902 C.3     1  UNL1        0.0350
      7 C         142.6727  140.8661  163.9324 C.3     1  UNL1        0.0761
      8 C         142.4437  140.5501  166.1274 C.ar    1  UNL1       -0.0215
      9 C         141.7857  141.8883  165.9662 C.ar    1  UNL1       -0.0043
     10 C         141.0104  142.4848  167.1035 C.ar    1  UNL1        0.0035
     11 C         140.8932  141.7430  168.4019 C.ar    1  UNL1        0.0714
     12 C         141.5513  140.4046  168.5631 C.ar    1  UNL1        0.0035
     13 C         142.3265  139.8082  167.4259 C.ar    1  UNL1       -0.0043
     14 C         140.1180  142.3394  169.5391 C.3     1  UNL1        0.4186
     15 F         139.3427  142.9358  170.6763 F       1  UNL1       -0.1659
     16 F         139.6687  140.9690  169.9516 F       1  UNL1       -0.1659
     17 F         140.5672  143.7098  169.1267 F       1  UNL1       -0.1659
     18 C         141.6885  141.0199  160.6567 C.3     1  UNL1        0.0294
     19 C         141.3803  139.8496  159.7705 C.3     1  UNL1        0.0666
     20 S         140.3716  138.8268  160.2026 S.3     1  UNL1       -0.0756
     21 C         138.1718  139.6756  162.4586 C.3     1  UNL1        0.1340
     22 N         139.3318  138.7469  162.6638 N.ar    1  UNL1       -0.2884
     23 C         140.3429  138.3568  161.6268 C.ar    1  UNL1        0.1932
     24 N         141.3203  137.4141  162.2640 N.ar    1  UNL1       -0.1221
     25 N         140.9133  137.2217  163.6947 N.ar    1  UNL1       -0.1282
     26 C         139.6843  138.0454  163.9418 C.ar    1  UNL1        0.1684
     27 C         138.9387  138.1493  165.2393 C.ar    1  UNL1        0.0585
     28 C         138.9441  139.4383  166.0063 C.ar    1  UNL1        0.0272
     29 C         138.1985  139.5421  167.3037 C.ar    1  UNL1        0.1223
     30 N         137.4475  138.3570  167.8341 N.ar    1  UNL1       -0.1464
     31 N         137.4420  137.0679  167.0671 N.ar    1  UNL1       -0.1463
     32 C         138.1876  136.9641  165.7697 C.ar    1  UNL1        0.1252
@<TRIPOS>BOND
     1    21    22    1
     2    22    23   ar
     3    23    20    1
     4    20    19    1
     5    19    18    1
     6    18     1    1
     7     1     2    1
     8     2     3    1
     9     4     3    1
    10     4     5    1
    11     5     6    1
    12     6     8    1
    13     8     9   ar
    14     9    10   ar
    15    10    11   ar
    16    11    14    1
    17    14    15    1
    18    14    16    1
    19    14    17    1
    20    11    12   ar
    21    12    13   ar
    22     6     7    1
    23    23    24   ar
    24    24    25   ar
    25    25    26   ar
    26    26    27    1
    27    27    28   ar
    28    28    29   ar
    29    29    30   ar
    30    30    31   ar
    31    31    32   ar
    32    26    22   ar
    33    32    27   ar
    34     7     2    1
    35     6     4    1
    36    13     8   ar
@<TRIPOS>MOLECULE
*****
 32 36 0 0 0
SMALL
GASTEIGER

@<TRIPOS>ATOM
      1 C         144.4470  139.3162  162.6692 C.3     1  UNL1        0.0730
      2 N         144.4127  140.6684  163.3175 N.3     1  UNL1       -0.2724
      3 C         145.6050  141.5057  163.6743 C.3     1  UNL1        0.0724
      4 C         145.1092  142.7756  164.3002 C.3     1  UNL1        0.0214
      5 C         144.3301  143.9204  164.8766 C.3     1  UNL1        0.0072
      6 C         143.6104  142.7231  164.3302 C.3     1  UNL1        0.0350
      7 C         143.1800  141.4208  163.7229 C.3     1  UNL1        0.0761
      8 C         142.2273  143.2252  164.6213 C.ar    1  UNL1       -0.0215
      9 C         141.4472  142.6522  165.7672 C.ar    1  UNL1       -0.0043
     10 C         140.0639  143.1543  166.0584 C.ar    1  UNL1        0.0035
     11 C         139.4609  144.2294  165.2036 C.ar    1  UNL1        0.0714
     12 C         140.2411  144.8023  164.0577 C.ar    1  UNL1        0.0035
     13 C         141.6243  144.3002  163.7665 C.ar    1  UNL1       -0.0043
     14 C         138.0778  144.7314  165.4947 C.3     1  UNL1        0.4186
     15 F         136.6946  145.2335  165.7859 F       1  UNL1       -0.1659
     16 F         137.5418  143.9151  164.3562 F       1  UNL1       -0.1659
     17 F         138.6137  145.5478  166.6333 F       1  UNL1       -0.1659
     18 C         144.0253  139.1596  161.2383 C.3     1  UNL1        0.0294
     19 C         142.7951  139.8571  160.7383 C.3     1  UNL1        0.0666
     20 S         141.4476  139.2237  160.9201 S.3     1  UNL1       -0.0756
     21 C         139.7249  140.7020  163.2645 C.3     1  UNL1        0.1340
     22 N         140.2788  139.3092  163.3226 N.ar    1  UNL1       -0.2884
     23 C         141.0707  138.6297  162.2449 C.ar    1  UNL1        0.1932
     24 N         141.4194  137.2520  162.7247 N.ar    1  UNL1       -0.1221
     25 N         140.8431  137.0800  164.0988 N.ar    1  UNL1       -0.1282
     26 C         140.1382  138.3515  164.4683 C.ar    1  UNL1        0.1684
     27 C         139.4189  138.6183  165.7574 C.ar    1  UNL1        0.0585
     28 C         140.0263  139.5324  166.7798 C.ar    1  UNL1        0.0272
     29 C         139.3070  139.7992  168.0688 C.ar    1  UNL1        0.1223
     30 N         137.9804  139.1518  168.3353 N.ar    1  UNL1       -0.1464
     31 N         137.3731  138.2377  167.3129 N.ar    1  UNL1       -0.1463
     32 C         138.0923  137.9709  166.0239 C.ar    1  UNL1        0.1252
@<TRIPOS>BOND
     1    21    22    1
     2    22    23   ar
     3    23    20    1
     4    20    19    1
     5    19    18    1
     6    18     1    1
     7     1     2    1
     8     2     3    1
     9     4     3    1
    10     4     5    1
    11     5     6    1
    12     6     8    1
    13     8     9   ar
    14     9    10   ar
    15    10    11   ar
    16    11    14    1
    17    14    15    1
    18    14    16    1
    19    14    17    1
    20    11    12   ar
    21    12    13   ar
    22     6     7    1
    23    23    24   ar
    24    24    25   ar
    25    25    26   ar
    26    26    27    1
    27    27    28   ar
    28    28    29   ar
    29    29    30   ar
    30    30    31   ar
    31    31    32   ar
    32    26    22   ar
    33    32    27   ar
    34     7     2    1
    35     6     4    1
    36    13     8   ar
@<TRIPOS>MOLECULE
*****
 32 36 0 0 0
SMALL
GASTEIGER

@<TRIPOS>ATOM
      1 C         142.1282  144.3688  161.2408 C.3     1  UNL1        0.0730
      2 N         140.9096  144.3159  162.1138 N.3     1  UNL1       -0.2724
      3 C         139.9772  145.4565  162.3964 C.3     1  UNL1        0.0724
      4 C         138.9008  144.9587  163.3148 C.3     1  UNL1        0.0214
      5 C         137.9791  144.1887  164.2135 C.3     1  UNL1        0.0072
      6 C         139.1679  143.5104  163.5999 C.3     1  UNL1        0.0350
      7 C         140.4094  143.1132  162.8577 C.3     1  UNL1        0.0761
      8 C         138.9163  142.1659  164.2155 C.ar    1  UNL1       -0.0215
      9 C         139.4119  141.8704  165.6000 C.ar    1  UNL1       -0.0043
     10 C         139.1603  140.5258  166.2157 C.ar    1  UNL1        0.0035
     11 C         138.4131  139.4768  165.4466 C.ar    1  UNL1        0.0714
     12 C         137.9175  139.7724  164.0620 C.ar    1  UNL1        0.0035
     13 C         138.1691  141.1169  163.4465 C.ar    1  UNL1       -0.0043
     14 C         138.1615  138.1323  166.0622 C.3     1  UNL1        0.4186
     15 F         137.9099  136.7877  166.6777 F       1  UNL1       -0.1659
     16 F         138.7159  137.4676  164.8371 F       1  UNL1       -0.1659
     17 F         137.6071  138.7969  167.2873 F       1  UNL1       -0.1659
     18 C         142.5072  143.1794  160.4092 C.3     1  UNL1        0.0294
     19 C         143.8670  142.5637  160.5569 C.3     1  UNL1        0.0666
     20 S         144.0005  141.1399  161.0099 S.3     1  UNL1       -0.0756
     21 C         145.0006  141.6625  164.0719 C.3     1  UNL1        0.1340
     22 N         143.7623  140.9210  163.6632 N.ar    1  UNL1       -0.2884
     23 C         143.3027  140.6808  162.2558 C.ar    1  UNL1        0.1932
     24 N         142.0227  139.9008  162.3129 N.ar    1  UNL1       -0.1221
     25 N         141.6914  139.6590  163.7557 N.ar    1  UNL1       -0.1282
     26 C         142.7665  140.2895  164.5902 C.ar    1  UNL1        0.1684
     27 C         142.8339  140.2886  166.0888 C.ar    1  UNL1        0.0585
     28 C         142.7843  141.5845  166.8425 C.ar    1  UNL1        0.0272
     29 C         142.8517  141.5836  168.3410 C.ar    1  UNL1        0.1223
     30 N         142.9688  140.2868  169.0857 N.ar    1  UNL1       -0.1464
     31 N         143.0184  138.9909  168.3320 N.ar    1  UNL1       -0.1463
     32 C         142.9510  138.9918  166.8335 C.ar    1  UNL1        0.1252
@<TRIPOS>BOND
     1    21    22    1
     2    22    23   ar
     3    23    20    1
     4    20    19    1
     5    19    18    1
     6    18     1    1
     7     1     2    1
     8     2     3    1
     9     4     3    1
    10     4     5    1
    11     5     6    1
    12     6     8    1
    13     8     9   ar
    14     9    10   ar
    15    10    11   ar
    16    11    14    1
    17    14    15    1
    18    14    16    1
    19    14    17    1
    20    11    12   ar
    21    12    13   ar
    22     6     7    1
    23    23    24   ar
    24    24    25   ar
    25    25    26   ar
    26    26    27    1
    27    27    28   ar
    28    28    29   ar
    29    29    30   ar
    30    30    31   ar
    31    31    32   ar
    32    26    22   ar
    33    32    27   ar
    34     7     2    1
    35     6     4    1
    36    13     8   ar
@<TRIPOS>MOLECULE
*****
 32 36 0 0 0
SMALL
GASTEIGER

@<TRIPOS>ATOM
      1 C         145.5009  141.8998  163.2370 C.3     1  UNL1        0.0730
      2 N         144.7820  140.9297  164.1270 N.3     1  UNL1       -0.2724
      3 C         144.8534  139.4340  164.0404 C.3     1  UNL1        0.0724
      4 C         143.9810  138.8649  165.1197 C.3     1  UNL1        0.0214
      5 C         143.0531  138.5968  166.2673 C.3     1  UNL1        0.0072
      6 C         143.3703  140.0089  165.8735 C.3     1  UNL1        0.0350
      7 C         143.8654  141.2851  165.2600 C.3     1  UNL1        0.0761
      8 C         142.5200  140.6595  166.9241 C.ar    1  UNL1       -0.0215
      9 C         142.6130  142.1389  167.1539 C.ar    1  UNL1       -0.0043
     10 C         141.7627  142.7896  168.2046 C.ar    1  UNL1        0.0035
     11 C         140.8195  141.9608  169.0253 C.ar    1  UNL1        0.0714
     12 C         140.7266  140.4814  168.7953 C.ar    1  UNL1        0.0035
     13 C         141.5768  139.8308  167.7448 C.ar    1  UNL1       -0.0043
     14 C         139.9692  142.6114  170.0759 C.3     1  UNL1        0.4186
     15 F         139.1189  143.2620  171.1264 F       1  UNL1       -0.1659
     16 F         140.8600  143.8180  170.0496 F       1  UNL1       -0.1659
     17 F         139.0785  141.4048  170.1021 F       1  UNL1       -0.1659
     18 C         144.8256  142.4326  162.0082 C.3     1  UNL1        0.0294
     19 C         143.9622  143.6560  162.0975 C.3     1  UNL1        0.0666
     20 S         142.4933  143.5599  161.8092 S.3     1  UNL1       -0.0756
     21 C         141.7068  140.4172  162.2012 C.3     1  UNL1        0.1340
     22 N         141.1986  141.5627  163.0256 N.ar    1  UNL1       -0.2884
     23 C         141.5601  143.0072  162.8454 C.ar    1  UNL1        0.1932
     24 N         140.8247  143.8020  163.8834 N.ar    1  UNL1       -0.1221
     25 N         140.0087  142.8487  164.7050 N.ar    1  UNL1       -0.1282
     26 C         140.2397  141.4647  164.1749 C.ar    1  UNL1        0.1684
     27 C         139.6206  140.2040  164.7016 C.ar    1  UNL1        0.0585
     28 C         140.1008  138.8705  164.2105 C.ar    1  UNL1        0.0272
     29 C         139.4817  137.6099  164.7373 C.ar    1  UNL1        0.1223
     30 N         138.3823  137.6827  165.7552 N.ar    1  UNL1       -0.1464
     31 N         137.9021  139.0162  166.2463 N.ar    1  UNL1       -0.1463
     32 C         138.5212  140.2768  165.7195 C.ar    1  UNL1        0.1252
@<TRIPOS>BOND
     1    21    22    1
     2    22    23   ar
     3    23    20    1
     4    20    19    1
     5    19    18    1
     6    18     1    1
     7     1     2    1
     8     2     3    1
     9     4     3    1
    10     4     5    1
    11     5     6    1
    12     6     8    1
    13     8     9   ar
    14     9    10   ar
    15    10    11   ar
    16    11    14    1
    17    14    15    1
    18    14    16    1
    19    14    17    1
    20    11    12   ar
    21    12    13   ar
    22     6     7    1
    23    23    24   ar
    24    24    25   ar
    25    25    26   ar
    26    26    27    1
    27    27    28   ar
    28    28    29   ar
    29    29    30   ar
    30    30    31   ar
    31    31    32   ar
    32    26    22   ar
    33    32    27   ar
    34     7     2    1
    35     6     4    1
    36    13     8   ar
@<TRIPOS>MOLECULE
*****
 32 36 0 0 0
SMALL
GASTEIGER

@<TRIPOS>ATOM
      1 C         137.9146  141.8013  161.3670 C.3     1  UNL1        0.0730
      2 N         138.2503  142.5272  162.6359 N.3     1  UNL1       -0.2724
      3 C         137.9578  143.9685  162.9310 C.3     1  UNL1        0.0724
      4 C         138.4642  144.2714  164.3101 C.3     1  UNL1        0.0214
      5 C         139.0577  144.2730  165.6877 C.3     1  UNL1        0.0072
      6 C         139.0697  143.0172  164.8674 C.3     1  UNL1        0.0350
      7 C         138.9375  141.9393  163.8327 C.3     1  UNL1        0.0761
      8 C         139.7593  142.1668  165.8926 C.ar    1  UNL1       -0.0215
      9 C         140.5278  142.8116  167.0077 C.ar    1  UNL1       -0.0043
     10 C         141.2176  141.9612  168.0330 C.ar    1  UNL1        0.0035
     11 C         141.1387  140.4659  167.9431 C.ar    1  UNL1        0.0714
     12 C         140.3701  139.8211  166.8279 C.ar    1  UNL1        0.0035
     13 C         139.6805  140.6716  165.8026 C.ar    1  UNL1       -0.0043
     14 C         141.8284  139.6155  168.9683 C.3     1  UNL1        0.4186
     15 F         142.5180  138.7651  169.9935 F       1  UNL1       -0.1659
     16 F         143.0696  139.6068  168.1262 F       1  UNL1       -0.1659
     17 F         140.5871  139.6241  169.8105 F       1  UNL1       -0.1659
     18 C         137.7427  140.3112  161.3783 C.3     1  UNL1        0.0294
     19 C         138.2037  139.4941  160.2079 C.3     1  UNL1        0.0666
     20 S         139.3490  138.5382  160.3652 S.3     1  UNL1       -0.0756
     21 C         141.5217  140.9655  160.5567 C.3     1  UNL1        0.1340
     22 N         141.3484  139.8568  161.5521 N.ar    1  UNL1       -0.2884
     23 C         140.3497  138.7411  161.4640 C.ar    1  UNL1        0.1932
     24 N         140.5275  137.8639  162.6677 N.ar    1  UNL1       -0.1221
     25 N         141.6360  138.4374  163.4996 N.ar    1  UNL1       -0.1282
     26 C         142.1433  139.6691  162.8101 C.ar    1  UNL1        0.1684
     27 C         143.2512  140.5573  163.2938 C.ar    1  UNL1        0.0585
     28 C         143.0285  141.4615  164.4697 C.ar    1  UNL1        0.0272
     29 C         144.1363  142.3496  164.9534 C.ar    1  UNL1        0.1223
     30 N         145.4670  142.3334  164.2611 N.ar    1  UNL1       -0.1464
     31 N         145.6897  141.4293  163.0852 N.ar    1  UNL1       -0.1463
     32 C         144.5819  140.5412  162.6016 C.ar    1  UNL1        0.1252
@<TRIPOS>BOND
     1    21    22    1
     2    22    23   ar
     3    23    20    1
     4    20    19    1
     5    19    18    1
     6    18     1    1
     7     1     2    1
     8     2     3    1
     9     4     3    1
    10     4     5    1
    11     5     6    1
    12     6     8    1
    13     8     9   ar
    14     9    10   ar
    15    10    11   ar
    16    11    14    1
    17    14    15    1
    18    14    16    1
    19    14    17    1
    20    11    12   ar
    21    12    13   ar
    22     6     7    1
    23    23    24   ar
    24    24    25   ar
    25    25    26   ar
    26    26    27    1
    27    27    28   ar
    28    28    29   ar
    29    29    30   ar
    30    30    31   ar
    31    31    32   ar
    32    26    22   ar
    33    32    27   ar
    34     7     2    1
    35     6     4    1
    36    13     8   ar
@<TRIPOS>MOLECULE
*****
 32 36 0 0 0
SMALL
GASTEIGER

@<TRIPOS>ATOM
      1 C         141.2038  137.6079  162.7951 C.3     1  UNL1        0.0730
      2 N         140.4026  138.0834  163.9707 N.3     1  UNL1       -0.2724
      3 C         138.9693  137.7452  164.2557 C.3     1  UNL1        0.0724
      4 C         138.5749  138.4334  165.5288 C.3     1  UNL1        0.0214
      5 C         138.4759  139.2270  166.7978 C.3     1  UNL1        0.0072
      6 C         139.7645  139.1970  166.0307 C.3     1  UNL1        0.0350
      7 C         140.8940  138.9807  165.0677 C.3     1  UNL1        0.0761
      8 C         140.5253  140.0880  166.9673 C.ar    1  UNL1       -0.0215
      9 C         141.8353  139.6319  167.5382 C.ar    1  UNL1       -0.0043
     10 C         142.5962  140.5229  168.4748 C.ar    1  UNL1        0.0035
     11 C         142.0471  141.8700  168.8405 C.ar    1  UNL1        0.0714
     12 C         140.7371  142.3262  168.2695 C.ar    1  UNL1        0.0035
     13 C         139.9762  141.4352  167.3329 C.ar    1  UNL1       -0.0043
     14 C         142.8079  142.7610  169.7771 C.3     1  UNL1        0.4186
     15 F         143.5688  143.6520  170.7137 F       1  UNL1       -0.1659
     16 F         144.1004  142.2172  169.2445 F       1  UNL1       -0.1659
     17 F         141.5154  143.3048  170.3097 F       1  UNL1       -0.1659
     18 C         140.8007  138.0003  161.4047 C.3     1  UNL1        0.0294
     19 C         139.4249  138.5393  161.1466 C.3     1  UNL1        0.0666
     20 S         139.2136  140.0171  161.0000 S.3     1  UNL1       -0.0756
     21 C         142.2515  141.0770  161.5451 C.3     1  UNL1        0.1340
     22 N         141.0355  141.4351  162.3471 N.ar    1  UNL1       -0.2884
     23 C         139.6392  140.9480  162.0965 C.ar    1  UNL1        0.1932
     24 N         138.7431  141.5551  163.1350 N.ar    1  UNL1       -0.1221
     25 N         139.5856  142.4174  164.0274 N.ar    1  UNL1       -0.1282
     26 C         141.0025  142.3433  163.5404 C.ar    1  UNL1        0.1684
     27 C         142.1796  143.0528  164.1414 C.ar    1  UNL1        0.0585
     28 C         142.9850  142.3896  165.2190 C.ar    1  UNL1        0.0272
     29 C         144.1621  143.0991  165.8199 C.ar    1  UNL1        0.1223
     30 N         144.5337  144.4719  165.3431 N.ar    1  UNL1       -0.1464
     31 N         143.7283  145.1352  164.2655 N.ar    1  UNL1       -0.1463
     32 C         142.5512  144.4256  163.6646 C.ar    1  UNL1        0.1252
@<TRIPOS>BOND
     1    21    22    1
     2    22    23   ar
     3    23    20    1
     4    20    19    1
     5    19    18    1
     6    18     1    1
     7     1     2    1
     8     2     3    1
     9     4     3    1
    10     4     5    1
    11     5     6    1
    12     6     8    1
    13     8     9   ar
    14     9    10   ar
    15    10    11   ar
    16    11    14    1
    17    14    15    1
    18    14    16    1
    19    14    17    1
    20    11    12   ar
    21    12    13   ar
    22     6     7    1
    23    23    24   ar
    24    24    25   ar
    25    25    26   ar
    26    26    27    1
    27    27    28   ar
    28    28    29   ar
    29    29    30   ar
    30    30    31   ar
    31    31    32   ar
    32    26    22   ar
    33    32    27   ar
    34     7     2    1
    35     6     4    1
    36    13     8   ar
