@<TRIPOS>MOLECULE
*****
 30 33 0 0 0
SMALL
GASTEIGER

@<TRIPOS>ATOM
      1 O         139.0262  139.7723  162.2310 O.2     1  UNL1       -0.2522
      2 C         140.3738  139.1147  162.1909 C.2     1  UNL1        0.3078
      3 N         141.1485  138.9142  163.4596 N.am    1  UNL1       -0.2681
      4 N         140.9468  138.6578  160.8821 N.am    1  UNL1       -0.2611
      5 C         140.1721  138.8584  159.6134 C.3     1  UNL1        0.1123
      6 C         140.7450  138.4014  158.3046 C.3     1  UNL1        0.0940
      7 N         142.0927  137.7439  158.2646 N.3     1  UNL1       -0.2697
      8 C         142.8673  137.5433  159.5332 C.3     1  UNL1        0.0940
      9 C         142.2944  138.0003  160.8420 C.3     1  UNL1        0.1123
     10 H         142.0330  138.4826  163.4333 H       1  UNL1        0.1564
     11 C         140.5756  139.3711  164.7685 C.ar    1  UNL1        0.0515
     12 C         141.1627  140.5598  165.4700 C.ar    1  UNL1        0.0147
     13 C         140.5898  141.0167  166.7788 C.ar    1  UNL1        0.0012
     14 C         139.4297  140.2849  167.3860 C.ar    1  UNL1        0.0039
     15 C         138.8426  139.0962  166.6845 C.ar    1  UNL1        0.0727
     16 C         139.4155  138.6393  165.3757 C.ar    1  UNL1        0.0186
     17 C         137.6825  138.3644  167.2917 C.3     1  UNL1        0.4186
     18 F         136.5225  137.6326  167.8989 F       1  UNL1       -0.1659
     19 F         137.6506  137.4371  166.1131 F       1  UNL1       -0.1659
     20 F         137.7145  139.2917  168.4703 F       1  UNL1       -0.1659
     21 C         142.6656  137.2870  156.9557 C.3     1  UNL1        0.0735
     22 C         142.5311  135.8526  156.5380 C.3     1  UNL1        0.0320
     23 C         141.4885  135.4583  155.5344 C.3     1  UNL1        0.0042
     24 C         141.3540  134.0239  155.1167 C.3     1  UNL1        0.0174
     25 C         142.2622  132.9838  155.7028 C.3     1  UNL1        0.0720
     26 N         143.3048  133.3781  156.7064 N.3     1  UNL1       -0.2739
     27 C         143.4393  134.8126  157.1241 C.3     1  UNL1        0.0734
     28 C         144.2130  132.3381  157.2925 C.3     1  UNL1        0.0576
     29 C         144.5284  130.8991  157.5749 C.3     1  UNL1        0.0173
     30 C         145.4707  131.9757  158.0252 C.3     1  UNL1        0.0173
@<TRIPOS>BOND
     1     1     2    2
     2     2     3   am
     3     3    11    1
     4    11    12   ar
     5    12    13   ar
     6    13    14   ar
     7    14    15   ar
     8    15    17    1
     9    17    18    1
    10    17    19    1
    11    17    20    1
    12    15    16   ar
    13     2     4   am
    14     4     5    1
    15     5     6    1
    16     6     7    1
    17     7    21    1
    18    22    21    1
    19    22    23    1
    20    23    24    1
    21    24    25    1
    22    25    26    1
    23    26    28    1
    24    28    29    1
    25    29    30    1
    26    26    27    1
    27     7     8    1
    28     8     9    1
    29    16    11   ar
    30     9     4    1
    31    27    22    1
    32    30    28    1
    33     3    10    1
@<TRIPOS>MOLECULE
*****
 30 33 0 0 0
SMALL
GASTEIGER

@<TRIPOS>ATOM
      1 O         138.5172  139.0849  162.0259 O.2     1  UNL1       -0.2522
      2 C         139.9442  138.6232  162.0508 C.2     1  UNL1        0.3078
      3 N         140.6361  138.3960  163.3621 N.am    1  UNL1       -0.2681
      4 N         140.6792  138.3886  160.7644 N.am    1  UNL1       -0.2611
      5 C         139.9872  138.6158  159.4531 C.3     1  UNL1        0.1123
      6 C         140.7222  138.3812  158.1668 C.3     1  UNL1        0.0940
      7 N         142.1491  137.9195  158.1917 N.3     1  UNL1       -0.2697
      8 C         142.8411  137.6923  159.5030 C.3     1  UNL1        0.0940
      9 C         142.1061  137.9269  160.7893 C.3     1  UNL1        0.1123
     10 H         141.5727  138.0930  163.3785 H       1  UNL1        0.1564
     11 C         139.9011  138.6306  164.6486 C.ar    1  UNL1        0.0515
     12 C         138.7868  137.7120  165.0539 C.ar    1  UNL1        0.0147
     13 C         138.0518  137.9466  166.3403 C.ar    1  UNL1        0.0012
     14 C         138.4313  139.0997  167.2213 C.ar    1  UNL1        0.0039
     15 C         139.5457  140.0183  166.8160 C.ar    1  UNL1        0.0727
     16 C         140.2806  139.7837  165.5296 C.ar    1  UNL1        0.0186
     17 C         139.9251  141.1714  167.6971 C.3     1  UNL1        0.4186
     18 F         140.3046  142.3246  168.5781 F       1  UNL1       -0.1659
     19 F         139.5656  140.3639  168.9089 F       1  UNL1       -0.1659
     20 F         140.2847  141.9790  166.4852 F       1  UNL1       -0.1659
     21 C         142.8841  137.6849  156.9053 C.3     1  UNL1        0.0735
     22 C         142.7916  136.3535  156.2206 C.3     1  UNL1        0.0320
     23 C         141.8700  136.1741  155.0509 C.3     1  UNL1        0.0042
     24 C         141.7775  134.8427  154.3662 C.3     1  UNL1        0.0174
     25 C         142.6067  133.6906  154.8514 C.3     1  UNL1        0.0720
     26 N         143.5283  133.8701  156.0212 N.3     1  UNL1       -0.2739
     27 C         143.6208  135.2016  156.7058 C.3     1  UNL1        0.0734
     28 C         144.3574  132.7181  156.5063 C.3     1  UNL1        0.0576
     29 C         144.9254  131.3461  156.2942 C.3     1  UNL1        0.0173
     30 C         145.2255  132.0947  157.5589 C.3     1  UNL1        0.0173
@<TRIPOS>BOND
     1     1     2    2
     2     2     3   am
     3     3    11    1
     4    11    12   ar
     5    12    13   ar
     6    13    14   ar
     7    14    15   ar
     8    15    17    1
     9    17    18    1
    10    17    19    1
    11    17    20    1
    12    15    16   ar
    13     2     4   am
    14     4     5    1
    15     5     6    1
    16     6     7    1
    17     7    21    1
    18    22    21    1
    19    22    23    1
    20    23    24    1
    21    24    25    1
    22    25    26    1
    23    26    28    1
    24    28    29    1
    25    29    30    1
    26    26    27    1
    27     7     8    1
    28     8     9    1
    29    16    11   ar
    30     9     4    1
    31    27    22    1
    32    30    28    1
    33     3    10    1
@<TRIPOS>MOLECULE
*****
 30 33 0 0 0
SMALL
GASTEIGER

@<TRIPOS>ATOM
      1 O         139.6252  145.8243  160.1246 O.2     1  UNL1       -0.2522
      2 C         140.7194  144.8578  159.7802 C.2     1  UNL1        0.3078
      3 N         140.9064  144.4113  158.3604 N.am    1  UNL1       -0.2681
      4 N         141.6267  144.3377  160.8556 N.am    1  UNL1       -0.2611
      5 C         141.4397  144.7841  162.2753 C.3     1  UNL1        0.1123
      6 C         142.3469  144.2640  163.3507 C.3     1  UNL1        0.0940
      7 N         143.4412  143.2976  163.0063 N.3     1  UNL1       -0.2697
      8 C         143.6281  142.8511  161.5865 C.3     1  UNL1        0.0940
      9 C         142.7209  143.3712  160.5112 C.3     1  UNL1        0.1123
     10 H         141.6245  143.7770  158.1344 H       1  UNL1        0.1564
     11 C         139.9991  144.9314  157.2850 C.ar    1  UNL1        0.0515
     12 C         139.1550  143.9794  156.4906 C.ar    1  UNL1        0.0147
     13 C         138.2478  144.4995  155.4153 C.ar    1  UNL1        0.0012
     14 C         138.1847  145.9716  155.1343 C.ar    1  UNL1        0.0039
     15 C         139.0288  146.9236  155.9287 C.ar    1  UNL1        0.0727
     16 C         139.9360  146.4035  157.0040 C.ar    1  UNL1        0.0186
     17 C         138.9657  148.3957  155.6477 C.3     1  UNL1        0.4186
     18 F         138.9027  149.8678  155.3667 F       1  UNL1       -0.1659
     19 F         138.6314  148.6560  157.0866 F       1  UNL1       -0.1659
     20 F         139.3001  148.1354  154.2088 F       1  UNL1       -0.1659
     21 C         144.3484  142.7775  164.0817 C.3     1  UNL1        0.0735
     22 C         143.7878  141.9522  165.2017 C.3     1  UNL1        0.0320
     23 C         143.5561  140.4830  165.0076 C.3     1  UNL1        0.0042
     24 C         142.9954  139.6577  166.1276 C.3     1  UNL1        0.0174
     25 C         142.6664  140.3016  167.4418 C.3     1  UNL1        0.0720
     26 N         142.8980  141.7709  167.6360 N.3     1  UNL1       -0.2739
     27 C         143.4587  142.5961  166.5158 C.3     1  UNL1        0.0734
     28 C         142.5690  142.4148  168.9501 C.3     1  UNL1        0.0576
     29 C         141.5592  142.9925  169.8969 C.3     1  UNL1        0.0173
     30 C         143.0090  142.9525  170.2795 C.3     1  UNL1        0.0173
@<TRIPOS>BOND
     1     1     2    2
     2     2     3   am
     3     3    11    1
     4    11    12   ar
     5    12    13   ar
     6    13    14   ar
     7    14    15   ar
     8    15    17    1
     9    17    18    1
    10    17    19    1
    11    17    20    1
    12    15    16   ar
    13     2     4   am
    14     4     5    1
    15     5     6    1
    16     6     7    1
    17     7    21    1
    18    22    21    1
    19    22    23    1
    20    23    24    1
    21    24    25    1
    22    25    26    1
    23    26    28    1
    24    28    29    1
    25    29    30    1
    26    26    27    1
    27     7     8    1
    28     8     9    1
    29    16    11   ar
    30     9     4    1
    31    27    22    1
    32    30    28    1
    33     3    10    1
@<TRIPOS>MOLECULE
*****
 30 33 0 0 0
SMALL
GASTEIGER

@<TRIPOS>ATOM
      1 O         141.7139  140.9678  163.3532 O.2     1  UNL1       -0.2522
      2 C         140.8142  142.1541  163.1715 C.2     1  UNL1        0.3078
      3 N         139.8061  142.4996  164.2271 N.am    1  UNL1       -0.2681
      4 N         140.9225  142.9951  161.9340 N.am    1  UNL1       -0.2611
      5 C         141.9306  142.6496  160.8784 C.3     1  UNL1        0.1123
      6 C         142.0390  143.4906  159.6411 C.3     1  UNL1        0.0940
      7 N         141.1392  144.6769  159.4594 N.3     1  UNL1       -0.2697
      8 C         140.1311  145.0223  160.5150 C.3     1  UNL1        0.0940
      9 C         140.0228  144.1814  161.7523 C.3     1  UNL1        0.1123
     10 H         139.2155  143.2782  164.1078 H       1  UNL1        0.1564
     11 C         139.6977  141.6586  165.4645 C.ar    1  UNL1        0.0515
     12 C         140.3263  142.1235  166.7446 C.ar    1  UNL1        0.0147
     13 C         140.2179  141.2825  167.9820 C.ar    1  UNL1        0.0012
     14 C         139.4809  139.9768  167.9392 C.ar    1  UNL1        0.0039
     15 C         138.8523  139.5119  166.6591 C.ar    1  UNL1        0.0727
     16 C         138.9607  140.3529  165.4217 C.ar    1  UNL1        0.0186
     17 C         138.1153  138.2062  166.6163 C.3     1  UNL1        0.4186
     18 F         137.3783  136.9004  166.5735 F       1  UNL1       -0.1659
     19 F         138.9720  137.7602  165.4686 F       1  UNL1       -0.1659
     20 F         137.2586  138.6521  167.7640 F       1  UNL1       -0.1659
     21 C         141.2476  145.5179  158.2219 C.3     1  UNL1        0.0735
     22 C         140.1609  145.4756  157.1889 C.3     1  UNL1        0.0320
     23 C         139.8324  146.7053  156.3952 C.3     1  UNL1        0.0042
     24 C         138.7457  146.6630  155.3621 C.3     1  UNL1        0.0174
     25 C         137.9874  145.3910  155.1227 C.3     1  UNL1        0.0720
     26 N         138.3160  144.1614  155.9164 N.3     1  UNL1       -0.2739
     27 C         139.4027  144.2037  156.9495 C.3     1  UNL1        0.0734
     28 C         137.5578  142.8894  155.6771 C.3     1  UNL1        0.0576
     29 C         137.1211  141.7917  154.7528 C.3     1  UNL1        0.0173
     30 C         136.6813  141.7841  156.1868 C.3     1  UNL1        0.0173
@<TRIPOS>BOND
     1     1     2    2
     2     2     3   am
     3     3    11    1
     4    11    12   ar
     5    12    13   ar
     6    13    14   ar
     7    14    15   ar
     8    15    17    1
     9    17    18    1
    10    17    19    1
    11    17    20    1
    12    15    16   ar
    13     2     4   am
    14     4     5    1
    15     5     6    1
    16     6     7    1
    17     7    21    1
    18    22    21    1
    19    22    23    1
    20    23    24    1
    21    24    25    1
    22    25    26    1
    23    26    28    1
    24    28    29    1
    25    29    30    1
    26    26    27    1
    27     7     8    1
    28     8     9    1
    29    16    11   ar
    30     9     4    1
    31    27    22    1
    32    30    28    1
    33     3    10    1
@<TRIPOS>MOLECULE
*****
 30 33 0 0 0
SMALL
GASTEIGER

@<TRIPOS>ATOM
      1 O         139.5371  143.9531  164.5757 O.2     1  UNL1       -0.2522
      2 C         140.2518  143.1127  163.5594 C.2     1  UNL1        0.3078
      3 N         140.7024  141.7270  163.9151 N.am    1  UNL1       -0.2681
      4 N         140.5160  143.6582  162.1872 N.am    1  UNL1       -0.2611
      5 C         140.0654  145.0440  161.8315 C.3     1  UNL1        0.1123
      6 C         140.3296  145.5895  160.4594 C.3     1  UNL1        0.0940
      7 N         141.0443  144.7491  159.4430 N.3     1  UNL1       -0.2697
      8 C         141.4948  143.3633  159.7987 C.3     1  UNL1        0.0940
      9 C         141.2307  142.8179  161.1708 C.3     1  UNL1        0.1123
     10 H         141.1715  141.1754  163.2480 H       1  UNL1        0.1564
     11 C         140.4382  141.1814  165.2872 C.ar    1  UNL1        0.0515
     12 C         141.3041  141.5975  166.4392 C.ar    1  UNL1        0.0147
     13 C         141.0399  141.0520  167.8113 C.ar    1  UNL1        0.0012
     14 C         139.9099  140.0904  168.0313 C.ar    1  UNL1        0.0039
     15 C         139.0440  139.6743  166.8793 C.ar    1  UNL1        0.0727
     16 C         139.3082  140.2199  165.5073 C.ar    1  UNL1        0.0186
     17 C         137.9140  138.7128  167.0994 C.3     1  UNL1        0.4186
     18 F         136.7840  137.7512  167.3194 F       1  UNL1       -0.1659
     19 F         137.8021  139.1703  168.5235 F       1  UNL1       -0.1659
     20 F         138.0260  138.2553  165.6752 F       1  UNL1       -0.1659
     21 C         141.3085  145.2946  158.0709 C.3     1  UNL1        0.0735
     22 C         140.1987  145.3615  157.0639 C.3     1  UNL1        0.0320
     23 C         139.9899  146.6104  156.2598 C.3     1  UNL1        0.0042
     24 C         138.8801  146.6773  155.2529 C.3     1  UNL1        0.0174
     25 C         137.9792  145.4952  155.0500 C.3     1  UNL1        0.0720
     26 N         138.1881  144.2463  155.8541 N.3     1  UNL1       -0.2739
     27 C         139.2979  144.1795  156.8611 C.3     1  UNL1        0.0734
     28 C         137.2872  143.0642  155.6512 C.3     1  UNL1        0.0576
     29 C         136.6162  141.8351  156.1885 C.3     1  UNL1        0.0173
     30 C         136.3980  142.2460  154.7626 C.3     1  UNL1        0.0173
@<TRIPOS>BOND
     1     1     2    2
     2     2     3   am
     3     3    11    1
     4    11    12   ar
     5    12    13   ar
     6    13    14   ar
     7    14    15   ar
     8    15    17    1
     9    17    18    1
    10    17    19    1
    11    17    20    1
    12    15    16   ar
    13     2     4   am
    14     4     5    1
    15     5     6    1
    16     6     7    1
    17     7    21    1
    18    22    21    1
    19    22    23    1
    20    23    24    1
    21    24    25    1
    22    25    26    1
    23    26    28    1
    24    28    29    1
    25    29    30    1
    26    26    27    1
    27     7     8    1
    28     8     9    1
    29    16    11   ar
    30     9     4    1
    31    27    22    1
    32    30    28    1
    33     3    10    1
@<TRIPOS>MOLECULE
*****
 30 33 0 0 0
SMALL
GASTEIGER

@<TRIPOS>ATOM
      1 O         144.0570  138.7516  159.8971 O.2     1  UNL1       -0.2522
      2 C         142.5744  138.9224  159.7465 C.2     1  UNL1        0.3078
      3 N         141.8759  138.3782  158.5358 N.am    1  UNL1       -0.2681
      4 N         141.7903  139.6376  160.8067 N.am    1  UNL1       -0.2611
      5 C         142.4889  140.1819  162.0173 C.3     1  UNL1        0.1123
      6 C         141.7048  140.8970  163.0774 C.3     1  UNL1        0.0940
      7 N         140.2222  141.0679  162.9267 N.3     1  UNL1       -0.2697
      8 C         139.5237  140.5236  161.7161 C.3     1  UNL1        0.0940
      9 C         140.3077  139.8085  160.6560 C.3     1  UNL1        0.1123
     10 H         140.9028  138.4903  158.4370 H       1  UNL1        0.1564
     11 C         142.6600  137.6630  157.4757 C.ar    1  UNL1        0.0515
     12 C         143.3135  138.4415  156.3726 C.ar    1  UNL1        0.0147
     13 C         144.0975  137.7263  155.3126 C.ar    1  UNL1        0.0012
     14 C         144.2280  136.2326  155.3556 C.ar    1  UNL1        0.0039
     15 C         143.5746  135.4541  156.4587 C.ar    1  UNL1        0.0727
     16 C         142.7905  136.1693  157.5188 C.ar    1  UNL1        0.0186
     17 C         143.7051  133.9604  156.5018 C.3     1  UNL1        0.4186
     18 F         143.8357  132.4667  156.5448 F       1  UNL1       -0.1659
     19 F         143.4881  133.8987  155.0188 F       1  UNL1       -0.1659
     20 F         143.9221  134.0221  157.9847 F       1  UNL1       -0.1659
     21 C         139.4381  141.7831  163.9869 C.3     1  UNL1        0.0735
     22 C         139.5118  141.3234  165.4128 C.3     1  UNL1        0.0320
     23 C         139.0222  139.9556  165.7861 C.3     1  UNL1        0.0042
     24 C         139.0959  139.4959  167.2120 C.3     1  UNL1        0.0174
     25 C         139.6593  140.4040  168.2646 C.3     1  UNL1        0.0720
     26 N         140.1490  141.7718  167.8913 N.3     1  UNL1       -0.2739
     27 C         140.0753  142.2315  166.4653 C.3     1  UNL1        0.0734
     28 C         140.7125  142.6799  168.9438 C.3     1  UNL1        0.0576
     29 C         141.8511  143.0945  169.8278 C.3     1  UNL1        0.0173
     30 C         140.5496  143.8381  169.8829 C.3     1  UNL1        0.0173
@<TRIPOS>BOND
     1     1     2    2
     2     2     3   am
     3     3    11    1
     4    11    12   ar
     5    12    13   ar
     6    13    14   ar
     7    14    15   ar
     8    15    17    1
     9    17    18    1
    10    17    19    1
    11    17    20    1
    12    15    16   ar
    13     2     4   am
    14     4     5    1
    15     5     6    1
    16     6     7    1
    17     7    21    1
    18    22    21    1
    19    22    23    1
    20    23    24    1
    21    24    25    1
    22    25    26    1
    23    26    28    1
    24    28    29    1
    25    29    30    1
    26    26    27    1
    27     7     8    1
    28     8     9    1
    29    16    11   ar
    30     9     4    1
    31    27    22    1
    32    30    28    1
    33     3    10    1
@<TRIPOS>MOLECULE
*****
 30 33 0 0 0
SMALL
GASTEIGER

@<TRIPOS>ATOM
      1 O         141.7777  139.2076  160.9058 O.2     1  UNL1       -0.2522
      2 C         140.7242  138.8055  159.9166 C.2     1  UNL1        0.3078
      3 N         139.2729  138.9225  160.2773 N.am    1  UNL1       -0.2681
      4 N         141.1220  138.2863  158.5667 N.am    1  UNL1       -0.2611
      5 C         142.5732  138.1693  158.2060 C.3     1  UNL1        0.1123
      6 C         142.9710  137.6501  156.8561 C.3     1  UNL1        0.0940
      7 N         141.9175  137.2480  155.8669 N.3     1  UNL1       -0.2697
      8 C         140.4662  137.3650  156.2276 C.3     1  UNL1        0.0940
      9 C         140.0685  137.8842  157.5775 C.3     1  UNL1        0.1123
     10 H         138.5815  138.6586  159.6281 H       1  UNL1        0.1564
     11 C         138.8751  139.4417  161.6273 C.ar    1  UNL1        0.0515
     12 C         138.8920  138.5282  162.8169 C.ar    1  UNL1        0.0147
     13 C         138.4942  139.0474  164.1668 C.ar    1  UNL1        0.0012
     14 C         138.0795  140.4801  164.3270 C.ar    1  UNL1        0.0039
     15 C         138.0627  141.3935  163.1373 C.ar    1  UNL1        0.0727
     16 C         138.4605  140.8743  161.7875 C.ar    1  UNL1        0.0186
     17 C         137.6480  142.8261  163.2975 C.3     1  UNL1        0.4186
     18 F         137.2334  144.2587  163.4577 F       1  UNL1       -0.1659
     19 F         137.6612  142.6632  164.7886 F       1  UNL1       -0.1659
     20 F         137.6349  142.9890  161.8065 F       1  UNL1       -0.1659
     21 C         142.3153  136.7288  154.5170 C.3     1  UNL1        0.0735
     22 C         142.4502  135.2521  154.2913 C.3     1  UNL1        0.0320
     23 C         141.8481  134.6218  153.0705 C.3     1  UNL1        0.0042
     24 C         141.9830  133.1451  152.8448 C.3     1  UNL1        0.0174
     25 C         142.7200  132.2985  153.8399 C.3     1  UNL1        0.0720
     26 N         143.3221  132.9287  155.0607 N.3     1  UNL1       -0.2739
     27 C         143.1872  134.4056  155.2863 C.3     1  UNL1        0.0734
     28 C         144.0592  132.0822  156.0557 C.3     1  UNL1        0.0576
     29 C         144.1804  130.8111  156.8427 C.3     1  UNL1        0.0173
     30 C         145.2146  131.8872  156.9922 C.3     1  UNL1        0.0173
@<TRIPOS>BOND
     1     1     2    2
     2     2     3   am
     3     3    11    1
     4    11    12   ar
     5    12    13   ar
     6    13    14   ar
     7    14    15   ar
     8    15    17    1
     9    17    18    1
    10    17    19    1
    11    17    20    1
    12    15    16   ar
    13     2     4   am
    14     4     5    1
    15     5     6    1
    16     6     7    1
    17     7    21    1
    18    22    21    1
    19    22    23    1
    20    23    24    1
    21    24    25    1
    22    25    26    1
    23    26    28    1
    24    28    29    1
    25    29    30    1
    26    26    27    1
    27     7     8    1
    28     8     9    1
    29    16    11   ar
    30     9     4    1
    31    27    22    1
    32    30    28    1
    33     3    10    1
@<TRIPOS>MOLECULE
*****
 30 33 0 0 0
SMALL
GASTEIGER

@<TRIPOS>ATOM
      1 O         138.1558  139.8953  158.8438 O.2     1  UNL1       -0.2522
      2 C         139.5566  139.5437  159.2488 C.2     1  UNL1        0.3078
      3 N         140.1353  140.1058  160.5133 N.am    1  UNL1       -0.2681
      4 N         140.3789  138.6299  158.3891 N.am    1  UNL1       -0.2611
      5 C         139.8002  138.0678  157.1245 C.3     1  UNL1        0.1123
      6 C         140.6225  137.1541  156.2649 C.3     1  UNL1        0.0940
      7 N         142.0233  136.8024  156.6698 N.3     1  UNL1       -0.2697
      8 C         142.6019  137.3645  157.9344 C.3     1  UNL1        0.0940
      9 C         141.7797  138.2782  158.7940 C.3     1  UNL1        0.1123
     10 H         141.0547  139.8750  160.7791 H       1  UNL1        0.1564
     11 C         139.3130  141.0196  161.3730 C.ar    1  UNL1        0.0515
     12 C         138.1635  140.4711  162.1652 C.ar    1  UNL1        0.0147
     13 C         137.3413  141.3848  163.0249 C.ar    1  UNL1        0.0012
     14 C         137.6687  142.8471  163.0923 C.ar    1  UNL1        0.0039
     15 C         138.8183  143.3956  162.3002 C.ar    1  UNL1        0.0727
     16 C         139.6405  142.4818  161.4405 C.ar    1  UNL1        0.0186
     17 C         139.1458  144.8579  162.3677 C.3     1  UNL1        0.4186
     18 F         139.4732  146.3201  162.4351 F       1  UNL1       -0.1659
     19 F         139.5647  144.8305  160.9276 F       1  UNL1       -0.1659
     20 F         138.7269  144.8852  163.8077 F       1  UNL1       -0.1659
     21 C         142.8455  135.8886  155.8101 C.3     1  UNL1        0.0735
     22 C         142.8146  134.4077  156.0460 C.3     1  UNL1        0.0320
     23 C         143.7629  133.7845  157.0271 C.3     1  UNL1        0.0042
     24 C         143.7320  132.3036  157.2631 C.3     1  UNL1        0.0174
     25 C         142.7528  131.4456  156.5179 C.3     1  UNL1        0.0720
     26 N         141.8045  132.0688  155.5368 N.3     1  UNL1       -0.2739
     27 C         141.8355  133.5498  155.3009 C.3     1  UNL1        0.0734
     28 C         140.8253  131.2109  154.7917 C.3     1  UNL1        0.0576
     29 C         140.2990  130.6641  153.4979 C.3     1  UNL1        0.0173
     30 C         139.6556  130.2719  154.7949 C.3     1  UNL1        0.0173
@<TRIPOS>BOND
     1     1     2    2
     2     2     3   am
     3     3    11    1
     4    11    12   ar
     5    12    13   ar
     6    13    14   ar
     7    14    15   ar
     8    15    17    1
     9    17    18    1
    10    17    19    1
    11    17    20    1
    12    15    16   ar
    13     2     4   am
    14     4     5    1
    15     5     6    1
    16     6     7    1
    17     7    21    1
    18    22    21    1
    19    22    23    1
    20    23    24    1
    21    24    25    1
    22    25    26    1
    23    26    28    1
    24    28    29    1
    25    29    30    1
    26    26    27    1
    27     7     8    1
    28     8     9    1
    29    16    11   ar
    30     9     4    1
    31    27    22    1
    32    30    28    1
    33     3    10    1
@<TRIPOS>MOLECULE
*****
 30 33 0 0 0
SMALL
GASTEIGER

@<TRIPOS>ATOM
      1 O         143.5789  139.2700  165.4854 O.2     1  UNL1       -0.2522
      2 C         142.8876  140.2181  164.5509 C.2     1  UNL1        0.3078
      3 N         142.0778  141.3552  165.0997 N.am    1  UNL1       -0.2681
      4 N         143.0062  140.0290  163.0676 N.am    1  UNL1       -0.2611
      5 C         143.8160  138.8920  162.5188 C.3     1  UNL1        0.1123
      6 C         143.9345  138.7030  161.0355 C.3     1  UNL1        0.0940
      7 N         143.2432  139.6510  160.1010 N.3     1  UNL1       -0.2697
      8 C         142.4334  140.7881  160.6498 C.3     1  UNL1        0.0940
      9 C         142.3149  140.9771  162.1331 C.3     1  UNL1        0.1123
     10 H         141.6241  141.9774  164.4863 H       1  UNL1        0.1564
     11 C         141.9592  141.5442  166.5831 C.ar    1  UNL1        0.0515
     12 C         143.0777  142.1863  167.3491 C.ar    1  UNL1        0.0147
     13 C         142.9591  142.3753  168.8323 C.ar    1  UNL1        0.0012
     14 C         141.7220  141.9223  169.5496 C.ar    1  UNL1        0.0039
     15 C         140.6036  141.2803  168.7836 C.ar    1  UNL1        0.0727
     16 C         140.7222  141.0913  167.3003 C.ar    1  UNL1        0.0186
     17 C         139.3665  140.8273  169.5009 C.3     1  UNL1        0.4186
     18 F         138.1295  140.3743  170.2182 F       1  UNL1       -0.1659
     19 F         139.4494  142.0250  170.4001 F       1  UNL1       -0.1659
     20 F         139.2837  139.6296  168.6016 F       1  UNL1       -0.1659
     21 C         143.3618  139.4620  158.6176 C.3     1  UNL1        0.0735
     22 C         142.3302  138.6622  157.8787 C.3     1  UNL1        0.0320
     23 C         140.9210  139.1663  157.7781 C.3     1  UNL1        0.0042
     24 C         139.8894  138.3665  157.0391 C.3     1  UNL1        0.0174
     25 C         140.2669  137.0627  156.4007 C.3     1  UNL1        0.0720
     26 N         141.6761  136.5586  156.5013 N.3     1  UNL1       -0.2739
     27 C         142.7077  137.3584  157.2403 C.3     1  UNL1        0.0734
     28 C         142.0536  135.2548  155.8630 C.3     1  UNL1        0.0576
     29 C         143.0658  134.3945  155.1664 C.3     1  UNL1        0.0173
     30 C         141.6953  133.8569  155.4539 C.3     1  UNL1        0.0173
@<TRIPOS>BOND
     1     1     2    2
     2     2     3   am
     3     3    11    1
     4    11    12   ar
     5    12    13   ar
     6    13    14   ar
     7    14    15   ar
     8    15    17    1
     9    17    18    1
    10    17    19    1
    11    17    20    1
    12    15    16   ar
    13     2     4   am
    14     4     5    1
    15     5     6    1
    16     6     7    1
    17     7    21    1
    18    22    21    1
    19    22    23    1
    20    23    24    1
    21    24    25    1
    22    25    26    1
    23    26    28    1
    24    28    29    1
    25    29    30    1
    26    26    27    1
    27     7     8    1
    28     8     9    1
    29    16    11   ar
    30     9     4    1
    31    27    22    1
    32    30    28    1
    33     3    10    1
