@<TRIPOS>MOLECULE
*****
 35 38 0 0 0
SMALL
GASTEIGER

@<TRIPOS>ATOM
      1 N         143.4453  140.4484  163.3866 N.3     1  UNL1       -0.2684
      2 C         142.6253  140.3155  162.1377 C.3     1  UNL1        0.1035
      3 C         141.8612  141.4948  161.6131 C.3     1  UNL1        0.1470
      4 C         141.0970  142.6742  161.0885 C.3     1  UNL1        0.1035
      5 N         141.1529  143.9865  161.8130 N.3     1  UNL1       -0.2685
      6 C         141.9729  144.1194  163.0620 C.3     1  UNL1        0.1035
      7 C         142.7370  142.9400  163.5865 C.3     1  UNL1        0.1470
      8 C         143.5011  141.7607  164.1111 C.3     1  UNL1        0.1035
      9 O         141.9170  142.8071  162.3376 O.3     1  UNL1       -0.3530
     10 C         144.2094  139.2690  163.9113 C.3     1  UNL1        0.0761
     11 C         144.4126  139.1037  165.3882 C.3     1  UNL1        0.0646
     12 C         143.3692  138.4140  166.2163 C.3     1  UNL1        0.2068
     13 O         143.2973  138.6650  167.6933 O.3     1  UNL1       -0.4754
     14 C         141.3052  142.3884  169.2484 C.ar    1  UNL1        0.0686
     15 C         142.2171  141.5977  170.1392 C.ar    1  UNL1        0.0134
     16 C         142.8811  140.3566  169.6208 C.ar    1  UNL1        0.0376
     17 C         142.6333  139.9061  168.2117 C.ar    1  UNL1        0.1386
     18 C         141.7214  140.6967  167.3209 C.ar    1  UNL1        0.0376
     19 C         141.0574  141.9379  167.8393 C.ar    1  UNL1        0.0134
     20 N         139.9772  144.8706  170.2850 N.1     1  UNL1       -0.1908
     21 C         140.6412  143.6295  169.7667 C.1     1  UNL1        0.1004
     22 C         140.3887  145.1659  161.2884 C.3     1  UNL1        0.0737
     23 C         139.2324  145.7176  162.0686 C.3     1  UNL1        0.0362
     24 C         138.4148  144.8109  162.9399 C.3     1  UNL1        0.0929
     25 N         137.7611  143.5953  162.3527 N.3     1  UNL1       -0.1793
     26 H         138.0650  143.5382  161.3807 H       1  UNL1        0.1488
     27 S         138.0021  142.2459  162.9618 S.O2    1  UNL1        0.0602
     28 O         138.4475  142.9006  164.2358 O.2     1  UNL1       -0.1530
     29 O         137.5567  141.5912  161.6879 O.2     1  UNL1       -0.1530
     30 C         138.2432  140.8966  163.5710 C.ar    1  UNL1        0.1219
     31 C         138.2302  140.7337  165.0620 C.ar    1  UNL1        0.0199
     32 C         138.4713  139.3843  165.6713 C.ar    1  UNL1        0.0014
     33 C         138.7254  138.1978  164.7894 C.ar    1  UNL1        0.0001
     34 C         138.7383  138.3607  163.2983 C.ar    1  UNL1        0.0014
     35 C         138.4973  139.7101  162.6891 C.ar    1  UNL1        0.0199
@<TRIPOS>BOND
     1    20    21    3
     2    21    14    1
     3    14    15   ar
     4    15    16   ar
     5    16    17   ar
     6    17    13    1
     7    13    12    1
     8    12    11    1
     9    11    10    1
    10    10     1    1
    11     1     2    1
    12     2     3    1
    13     3     4    1
    14     4     5    1
    15     5    22    1
    16    22    23    1
    17    23    24    1
    18    24    25    1
    19    25    27    1
    20    27    28    2
    21    27    29    2
    22    27    30    1
    23    30    31   ar
    24    31    32   ar
    25    32    33   ar
    26    33    34   ar
    27    34    35   ar
    28     5     6    1
    29     6     7    1
    30     7     8    1
    31     7     9    1
    32    17    18   ar
    33    18    19   ar
    34    19    14   ar
    35     8     1    1
    36     9     3    1
    37    35    30   ar
    38    25    26    1
@<TRIPOS>MOLECULE
*****
 35 38 0 0 0
SMALL
GASTEIGER

@<TRIPOS>ATOM
      1 N         139.1215  140.9980  165.7004 N.3     1  UNL1       -0.2684
      2 C         140.0880  142.0977  166.0269 C.3     1  UNL1        0.1035
      3 C         140.1628  143.3144  165.1529 C.3     1  UNL1        0.1470
      4 C         140.2375  144.5312  164.2788 C.3     1  UNL1        0.1035
      5 N         139.3458  144.6483  163.0784 N.3     1  UNL1       -0.2685
      6 C         138.3792  143.5486  162.7520 C.3     1  UNL1        0.1035
      7 C         138.3045  142.3318  163.6260 C.3     1  UNL1        0.1470
      8 C         138.2298  141.1151  164.5000 C.3     1  UNL1        0.1035
      9 O         139.2710  143.4315  163.9524 O.3     1  UNL1       -0.3530
     10 C         139.0468  139.7812  166.5744 C.3     1  UNL1        0.0761
     11 C         138.2800  138.5756  166.1176 C.3     1  UNL1        0.0646
     12 C         138.9444  137.5493  165.2485 C.3     1  UNL1        0.2068
     13 O         138.6715  137.5254  163.7737 O.3     1  UNL1       -0.4754
     14 C         141.8690  138.7951  160.8731 C.ar    1  UNL1        0.0686
     15 C         140.4839  139.3589  160.7565 C.ar    1  UNL1        0.0134
     16 C         139.4180  138.9356  161.7234 C.ar    1  UNL1        0.0376
     17 C         139.7373  137.9486  162.8069 C.ar    1  UNL1        0.1386
     18 C         141.1225  137.3849  162.9235 C.ar    1  UNL1        0.0376
     19 C         142.1883  137.8082  161.9566 C.ar    1  UNL1        0.0134
     20 N         144.0007  139.6416  158.9394 N.1     1  UNL1       -0.1908
     21 C         142.9348  139.2183  159.9063 C.1     1  UNL1        0.1004
     22 C         139.4205  145.8651  162.2044 C.3     1  UNL1        0.0737
     23 C         140.2023  145.8226  160.9249 C.3     1  UNL1        0.0362
     24 C         141.0718  144.6400  160.6161 C.3     1  UNL1        0.0929
     25 N         142.5193  144.6505  161.0091 N.3     1  UNL1       -0.1793
     26 H         142.6812  145.5223  161.5132 H       1  UNL1        0.1488
     27 S         143.0730  143.5478  161.8621 S.O2    1  UNL1        0.0602
     28 O         144.1866  144.4497  162.3051 O.2     1  UNL1       -0.1530
     29 O         141.9593  142.6459  161.4190 O.2     1  UNL1       -0.1530
     30 C         143.6267  142.4451  162.7150 C.ar    1  UNL1        0.1219
     31 C         142.7034  141.4305  163.3215 C.ar    1  UNL1        0.0199
     32 C         143.2570  140.3277  164.1745 C.ar    1  UNL1        0.0014
     33 C         144.7340  140.2397  164.4209 C.ar    1  UNL1        0.0001
     34 C         145.6574  141.2544  163.8143 C.ar    1  UNL1        0.0014
     35 C         145.1037  142.3571  162.9614 C.ar    1  UNL1        0.0199
@<TRIPOS>BOND
     1    20    21    3
     2    21    14    1
     3    14    15   ar
     4    15    16   ar
     5    16    17   ar
     6    17    13    1
     7    13    12    1
     8    12    11    1
     9    11    10    1
    10    10     1    1
    11     1     2    1
    12     2     3    1
    13     3     4    1
    14     4     5    1
    15     5    22    1
    16    22    23    1
    17    23    24    1
    18    24    25    1
    19    25    27    1
    20    27    28    2
    21    27    29    2
    22    27    30    1
    23    30    31   ar
    24    31    32   ar
    25    32    33   ar
    26    33    34   ar
    27    34    35   ar
    28     5     6    1
    29     6     7    1
    30     7     8    1
    31     7     9    1
    32    17    18   ar
    33    18    19   ar
    34    19    14   ar
    35     8     1    1
    36     9     3    1
    37    35    30   ar
    38    25    26    1
@<TRIPOS>MOLECULE
*****
 35 38 0 0 0
SMALL
GASTEIGER

@<TRIPOS>ATOM
      1 N         139.2230  139.1130  163.2366 N.3     1  UNL1       -0.2684
      2 C         138.0279  139.9697  162.9402 C.3     1  UNL1        0.1035
      3 C         138.1961  141.2582  162.1909 C.3     1  UNL1        0.1470
      4 C         138.3642  142.5467  161.4416 C.3     1  UNL1        0.1035
      5 N         139.7274  142.9785  160.9886 N.3     1  UNL1       -0.2685
      6 C         140.9225  142.1218  161.2850 C.3     1  UNL1        0.1035
      7 C         140.7544  140.8333  162.0343 C.3     1  UNL1        0.1470
      8 C         140.5862  139.5448  162.7836 C.3     1  UNL1        0.1035
      9 O         139.5593  141.6900  161.7380 O.3     1  UNL1       -0.3530
     10 C         139.0548  137.8245  163.9859 C.3     1  UNL1        0.0761
     11 C         138.5200  137.8361  165.3872 C.3     1  UNL1        0.0646
     12 C         138.4251  139.1283  166.1432 C.3     1  UNL1        0.2068
     13 O         138.5487  139.1336  167.6380 O.3     1  UNL1       -0.4754
     14 C         141.3845  141.9895  169.6509 C.ar    1  UNL1        0.0686
     15 C         141.4874  141.7463  168.1744 C.ar    1  UNL1        0.0134
     16 C         140.5422  140.7943  167.5034 C.ar    1  UNL1        0.0376
     17 C         139.4939  140.0855  168.3090 C.ar    1  UNL1        0.1386
     18 C         139.3910  140.3288  169.7855 C.ar    1  UNL1        0.0376
     19 C         140.3363  141.2808  170.4565 C.ar    1  UNL1        0.0134
     20 N         143.2749  143.8935  170.9929 N.1     1  UNL1       -0.1908
     21 C         142.3297  142.9415  170.3219 C.1     1  UNL1        0.1004
     22 C         139.8956  144.2670  160.2393 C.3     1  UNL1        0.0737
     23 C         140.4911  145.4610  160.9247 C.3     1  UNL1        0.0362
     24 C         140.4256  145.5784  162.4186 C.3     1  UNL1        0.0929
     25 N         141.6897  145.6894  163.2184 N.3     1  UNL1       -0.1793
     26 H         141.4267  146.0472  164.1366 H       1  UNL1        0.1488
     27 S         142.5375  144.4744  163.4536 S.O2    1  UNL1        0.0602
     28 O         143.5586  145.0002  162.4889 O.2     1  UNL1       -0.1530
     29 O         141.5163  143.9486  164.4184 O.2     1  UNL1       -0.1530
     30 C         143.3853  143.2596  163.6889 C.ar    1  UNL1        0.1219
     31 C         142.9841  142.2549  164.7279 C.ar    1  UNL1        0.0199
     32 C         143.8319  141.0399  164.9632 C.ar    1  UNL1        0.0014
     33 C         145.0808  140.8298  164.1594 C.ar    1  UNL1        0.0001
     34 C         145.4819  141.8346  163.1203 C.ar    1  UNL1        0.0014
     35 C         144.6342  143.0495  162.8851 C.ar    1  UNL1        0.0199
@<TRIPOS>BOND
     1    20    21    3
     2    21    14    1
     3    14    15   ar
     4    15    16   ar
     5    16    17   ar
     6    17    13    1
     7    13    12    1
     8    12    11    1
     9    11    10    1
    10    10     1    1
    11     1     2    1
    12     2     3    1
    13     3     4    1
    14     4     5    1
    15     5    22    1
    16    22    23    1
    17    23    24    1
    18    24    25    1
    19    25    27    1
    20    27    28    2
    21    27    29    2
    22    27    30    1
    23    30    31   ar
    24    31    32   ar
    25    32    33   ar
    26    33    34   ar
    27    34    35   ar
    28     5     6    1
    29     6     7    1
    30     7     8    1
    31     7     9    1
    32    17    18   ar
    33    18    19   ar
    34    19    14   ar
    35     8     1    1
    36     9     3    1
    37    35    30   ar
    38    25    26    1
@<TRIPOS>MOLECULE
*****
 35 38 0 0 0
SMALL
GASTEIGER

@<TRIPOS>ATOM
      1 N         139.9707  139.0785  161.3691 N.3     1  UNL1       -0.2684
      2 C         141.3916  139.4556  161.6668 C.3     1  UNL1        0.1035
      3 C         142.0638  140.5345  160.8705 C.3     1  UNL1        0.1470
      4 C         142.7361  141.6134  160.0742 C.3     1  UNL1        0.1035
      5 N         141.9874  142.3152  158.9802 N.3     1  UNL1       -0.2685
      6 C         140.5663  141.9381  158.6825 C.3     1  UNL1        0.1035
      7 C         139.8941  140.8593  159.4788 C.3     1  UNL1        0.1470
      8 C         139.2219  139.7804  160.2751 C.3     1  UNL1        0.1035
      9 O         141.3151  141.2363  159.7765 O.3     1  UNL1       -0.3530
     10 C         139.2984  137.9996  162.1654 C.3     1  UNL1        0.0761
     11 C         139.0934  138.1738  163.6411 C.3     1  UNL1        0.0646
     12 C         138.6656  139.5038  164.1871 C.3     1  UNL1        0.2068
     13 O         139.6966  140.5004  164.6276 O.3     1  UNL1       -0.4754
     14 C         140.1661  141.4698  168.9967 C.ar    1  UNL1        0.0686
     15 C         139.5011  140.1917  168.5793 C.ar    1  UNL1        0.0134
     16 C         139.3446  139.8685  167.1230 C.ar    1  UNL1        0.0376
     17 C         139.8531  140.8235  166.0839 C.ar    1  UNL1        0.1386
     18 C         140.5181  142.1016  166.5013 C.ar    1  UNL1        0.0376
     19 C         140.6746  142.4248  167.9578 C.ar    1  UNL1        0.0134
     20 N         140.4791  142.1161  171.9095 N.1     1  UNL1       -0.1908
     21 C         140.3226  141.7930  170.4531 C.1     1  UNL1        0.1004
     22 C         142.6596  143.3941  158.1839 C.3     1  UNL1        0.0737
     23 C         141.9296  144.6694  157.8827 C.3     1  UNL1        0.0362
     24 C         141.2949  145.4509  158.9947 C.3     1  UNL1        0.0929
     25 N         141.7225  145.2188  160.4136 N.3     1  UNL1       -0.1793
     26 H         142.1469  146.0873  160.7390 H       1  UNL1        0.1488
     27 S         140.7107  144.8177  161.4458 S.O2    1  UNL1        0.0602
     28 O         139.6285  144.8796  160.4090 O.2     1  UNL1       -0.1530
     29 O         141.7929  144.7559  162.4826 O.2     1  UNL1       -0.1530
     30 C         139.6989  144.4167  162.4780 C.ar    1  UNL1        0.1219
     31 C         138.6738  143.3700  162.1563 C.ar    1  UNL1        0.0199
     32 C         137.6619  142.9690  163.1885 C.ar    1  UNL1        0.0014
     33 C         137.6753  143.6146  164.5424 C.ar    1  UNL1        0.0001
     34 C         138.7005  144.6614  164.8640 C.ar    1  UNL1        0.0014
     35 C         139.7123  145.0624  163.8318 C.ar    1  UNL1        0.0199
@<TRIPOS>BOND
     1    20    21    3
     2    21    14    1
     3    14    15   ar
     4    15    16   ar
     5    16    17   ar
     6    17    13    1
     7    13    12    1
     8    12    11    1
     9    11    10    1
    10    10     1    1
    11     1     2    1
    12     2     3    1
    13     3     4    1
    14     4     5    1
    15     5    22    1
    16    22    23    1
    17    23    24    1
    18    24    25    1
    19    25    27    1
    20    27    28    2
    21    27    29    2
    22    27    30    1
    23    30    31   ar
    24    31    32   ar
    25    32    33   ar
    26    33    34   ar
    27    34    35   ar
    28     5     6    1
    29     6     7    1
    30     7     8    1
    31     7     9    1
    32    17    18   ar
    33    18    19   ar
    34    19    14   ar
    35     8     1    1
    36     9     3    1
    37    35    30   ar
    38    25    26    1
@<TRIPOS>MOLECULE
*****
 35 38 0 0 0
SMALL
GASTEIGER

@<TRIPOS>ATOM
      1 N         141.8271  139.6667  168.1547 N.3     1  UNL1       -0.2684
      2 C         142.8045  139.0458  167.2012 C.3     1  UNL1        0.1035
      3 C         142.3578  138.6391  165.8283 C.3     1  UNL1        0.1470
      4 C         141.9111  138.2324  164.4553 C.3     1  UNL1        0.1035
      5 N         140.4869  138.4465  164.0358 N.3     1  UNL1       -0.2685
      6 C         139.5095  139.0674  164.9894 C.3     1  UNL1        0.1035
      7 C         139.9562  139.4741  166.3623 C.3     1  UNL1        0.1470
      8 C         140.4029  139.8808  167.7352 C.3     1  UNL1        0.1035
      9 O         140.9336  138.8533  165.4088 O.3     1  UNL1       -0.3530
     10 C         142.2738  140.0734  169.5277 C.3     1  UNL1        0.0761
     11 C         142.6738  141.4940  169.7961 C.3     1  UNL1        0.0646
     12 C         142.6229  142.5088  168.6926 C.3     1  UNL1        0.2068
     13 O         143.7812  142.6507  167.7502 O.3     1  UNL1       -0.4754
     14 C         143.0429  143.3806  163.3716 C.ar    1  UNL1        0.0686
     15 C         142.0661  142.5712  164.1722 C.ar    1  UNL1        0.0134
     16 C         142.3122  142.3280  165.6317 C.ar    1  UNL1        0.0376
     17 C         143.5351  142.8940  166.2907 C.ar    1  UNL1        0.1386
     18 C         144.5119  143.7034  165.4901 C.ar    1  UNL1        0.0376
     19 C         144.2657  143.9466  164.0305 C.ar    1  UNL1        0.0134
     20 N         142.5506  143.8672  160.4525 N.1     1  UNL1       -0.1908
     21 C         142.7968  143.6239  161.9121 C.1     1  UNL1        0.1004
     22 C         140.0402  138.0398  162.6629 C.3     1  UNL1        0.0737
     23 C         139.4071  139.0484  161.7506 C.3     1  UNL1        0.0362
     24 C         137.9215  139.0443  161.5438 C.3     1  UNL1        0.0929
     25 N         137.1571  140.3346  161.5707 N.3     1  UNL1       -0.1793
     26 H         136.2513  140.1315  161.9935 H       1  UNL1        0.1488
     27 S         137.7165  141.5229  162.2953 S.O2    1  UNL1        0.0602
     28 O         137.2986  140.9214  163.6043 O.2     1  UNL1       -0.1530
     29 O         138.1344  142.1244  160.9863 O.2     1  UNL1       -0.1530
     30 C         138.2760  142.7111  163.0199 C.ar    1  UNL1        0.1219
     31 C         138.9252  143.8222  162.2492 C.ar    1  UNL1        0.0199
     32 C         139.4847  145.0105  162.9738 C.ar    1  UNL1        0.0014
     33 C         139.3949  145.0877  164.4691 C.ar    1  UNL1        0.0001
     34 C         138.7455  143.9766  165.2398 C.ar    1  UNL1        0.0014
     35 C         138.1861  142.7883  164.5152 C.ar    1  UNL1        0.0199
@<TRIPOS>BOND
     1    20    21    3
     2    21    14    1
     3    14    15   ar
     4    15    16   ar
     5    16    17   ar
     6    17    13    1
     7    13    12    1
     8    12    11    1
     9    11    10    1
    10    10     1    1
    11     1     2    1
    12     2     3    1
    13     3     4    1
    14     4     5    1
    15     5    22    1
    16    22    23    1
    17    23    24    1
    18    24    25    1
    19    25    27    1
    20    27    28    2
    21    27    29    2
    22    27    30    1
    23    30    31   ar
    24    31    32   ar
    25    32    33   ar
    26    33    34   ar
    27    34    35   ar
    28     5     6    1
    29     6     7    1
    30     7     8    1
    31     7     9    1
    32    17    18   ar
    33    18    19   ar
    34    19    14   ar
    35     8     1    1
    36     9     3    1
    37    35    30   ar
    38    25    26    1
@<TRIPOS>MOLECULE
*****
 35 38 0 0 0
SMALL
GASTEIGER

@<TRIPOS>ATOM
      1 N         141.5686  138.9447  159.9711 N.3     1  UNL1       -0.2684
      2 C         141.8599  138.1376  161.2015 C.3     1  UNL1        0.1035
      3 C         142.8584  138.6338  162.2048 C.3     1  UNL1        0.1470
      4 C         143.8569  139.1300  163.2083 C.3     1  UNL1        0.1035
      5 N         144.5641  140.4332  162.9814 N.3     1  UNL1       -0.2685
      6 C         144.2727  141.2403  161.7510 C.3     1  UNL1        0.1035
      7 C         143.2742  140.7441  160.7476 C.3     1  UNL1        0.1470
      8 C         142.2758  140.2480  159.7442 C.3     1  UNL1        0.1035
      9 O         143.5656  139.9370  161.9779 O.3     1  UNL1       -0.3530
     10 C         140.5701  138.4486  158.9677 C.3     1  UNL1        0.0761
     11 C         139.2288  139.1104  158.8539 C.3     1  UNL1        0.0646
     12 C         138.4960  139.5379  160.0911 C.3     1  UNL1        0.2068
     13 O         138.0481  138.5121  161.0896 O.3     1  UNL1       -0.4754
     14 C         138.6993  139.2173  165.4860 C.ar    1  UNL1        0.0686
     15 C         139.0638  137.8961  164.8762 C.ar    1  UNL1        0.0134
     16 C         138.8468  137.6611  163.4108 C.ar    1  UNL1        0.0376
     17 C         138.2652  138.7471  162.5550 C.ar    1  UNL1        0.1386
     18 C         137.9007  140.0683  163.1648 C.ar    1  UNL1        0.0376
     19 C         138.1178  140.3033  164.6303 C.ar    1  UNL1        0.0134
     20 N         139.1334  139.6874  168.4170 N.1     1  UNL1       -0.1908
     21 C         138.9163  139.4523  166.9514 C.1     1  UNL1        0.1004
     22 C         145.5626  140.9294  163.9847 C.3     1  UNL1        0.0737
     23 C         145.6062  142.3855  164.3426 C.3     1  UNL1        0.0362
     24 C         144.3582  143.0845  164.7939 C.3     1  UNL1        0.0929
     25 N         143.1365  142.2873  165.1430 N.3     1  UNL1       -0.1793
     26 H         143.0980  142.2382  166.1611 H       1  UNL1        0.1488
     27 S         141.7849  142.7446  164.6801 S.O2    1  UNL1        0.0602
     28 O         142.4338  143.6122  163.6427 O.2     1  UNL1       -0.1530
     29 O         141.1360  141.8771  165.7175 O.2     1  UNL1       -0.1530
     30 C         140.4335  143.2019  164.2171 C.ar    1  UNL1        0.1219
     31 C         140.0779  143.1371  162.7614 C.ar    1  UNL1        0.0199
     32 C         138.7263  143.5944  162.2983 C.ar    1  UNL1        0.0014
     33 C         137.7305  144.1165  163.2911 C.ar    1  UNL1        0.0001
     34 C         138.0861  144.1813  164.7470 C.ar    1  UNL1        0.0014
     35 C         139.4376  143.7240  165.2099 C.ar    1  UNL1        0.0199
@<TRIPOS>BOND
     1    20    21    3
     2    21    14    1
     3    14    15   ar
     4    15    16   ar
     5    16    17   ar
     6    17    13    1
     7    13    12    1
     8    12    11    1
     9    11    10    1
    10    10     1    1
    11     1     2    1
    12     2     3    1
    13     3     4    1
    14     4     5    1
    15     5    22    1
    16    22    23    1
    17    23    24    1
    18    24    25    1
    19    25    27    1
    20    27    28    2
    21    27    29    2
    22    27    30    1
    23    30    31   ar
    24    31    32   ar
    25    32    33   ar
    26    33    34   ar
    27    34    35   ar
    28     5     6    1
    29     6     7    1
    30     7     8    1
    31     7     9    1
    32    17    18   ar
    33    18    19   ar
    34    19    14   ar
    35     8     1    1
    36     9     3    1
    37    35    30   ar
    38    25    26    1
@<TRIPOS>MOLECULE
*****
 35 38 0 0 0
SMALL
GASTEIGER

@<TRIPOS>ATOM
      1 N         140.0411  141.0022  165.3528 N.3     1  UNL1       -0.2684
      2 C         141.5055  141.0649  165.0340 C.3     1  UNL1        0.1035
      3 C         141.9576  141.2171  163.6119 C.3     1  UNL1        0.1470
      4 C         142.4097  141.3694  162.1898 C.3     1  UNL1        0.1035
      5 N         141.3975  141.4590  161.0865 N.3     1  UNL1       -0.2685
      6 C         139.9330  141.3963  161.4053 C.3     1  UNL1        0.1035
      7 C         139.4809  141.2441  162.8274 C.3     1  UNL1        0.1470
      8 C         139.0289  141.0918  164.2495 C.3     1  UNL1        0.1035
      9 O         140.9453  141.3067  162.5086 O.3     1  UNL1       -0.3530
     10 C         139.5890  140.8499  166.7750 C.3     1  UNL1        0.0761
     11 C         139.1616  139.5061  167.2863 C.3     1  UNL1        0.0646
     12 C         138.0965  138.7336  166.5661 C.3     1  UNL1        0.2068
     13 O         138.4553  137.4914  165.8058 O.3     1  UNL1       -0.4754
     14 C         141.1778  137.7484  162.2320 C.ar    1  UNL1        0.0686
     15 C         139.6905  137.8125  162.0480 C.ar    1  UNL1        0.0134
     16 C         138.7830  137.7268  163.2392 C.ar    1  UNL1        0.0376
     17 C         139.3628  137.5770  164.6145 C.ar    1  UNL1        0.1386
     18 C         140.8501  137.5129  164.7985 C.ar    1  UNL1        0.0376
     19 C         141.7576  137.5986  163.6072 C.ar    1  UNL1        0.0134
     20 N         142.9928  137.9197  159.8495 N.1     1  UNL1       -0.1908
     21 C         142.0853  137.8341  161.0407 C.1     1  UNL1        0.1004
     22 C         141.8496  141.6113  159.6644 C.3     1  UNL1        0.0737
     23 C         141.6207  142.9041  158.9389 C.3     1  UNL1        0.0362
     24 C         142.3832  144.1328  159.3372 C.3     1  UNL1        0.0929
     25 N         141.6662  145.2881  159.9706 N.3     1  UNL1       -0.1793
     26 H         141.0297  145.6614  159.2664 H       1  UNL1        0.1488
     27 S         140.8579  145.0771  161.2165 S.O2    1  UNL1        0.0602
     28 O         139.6030  145.3843  160.4544 O.2     1  UNL1       -0.1530
     29 O         142.1128  144.7700  161.9787 O.2     1  UNL1       -0.1530
     30 C         140.0497  144.8662  162.4624 C.ar    1  UNL1        0.1219
     31 C         140.7310  144.8080  163.7974 C.ar    1  UNL1        0.0199
     32 C         139.9227  144.5971  165.0434 C.ar    1  UNL1        0.0014
     33 C         138.4332  144.4444  164.9542 C.ar    1  UNL1        0.0001
     34 C         137.7519  144.5026  163.6191 C.ar    1  UNL1        0.0014
     35 C         138.5601  144.7135  162.3732 C.ar    1  UNL1        0.0199
@<TRIPOS>BOND
     1    20    21    3
     2    21    14    1
     3    14    15   ar
     4    15    16   ar
     5    16    17   ar
     6    17    13    1
     7    13    12    1
     8    12    11    1
     9    11    10    1
    10    10     1    1
    11     1     2    1
    12     2     3    1
    13     3     4    1
    14     4     5    1
    15     5    22    1
    16    22    23    1
    17    23    24    1
    18    24    25    1
    19    25    27    1
    20    27    28    2
    21    27    29    2
    22    27    30    1
    23    30    31   ar
    24    31    32   ar
    25    32    33   ar
    26    33    34   ar
    27    34    35   ar
    28     5     6    1
    29     6     7    1
    30     7     8    1
    31     7     9    1
    32    17    18   ar
    33    18    19   ar
    34    19    14   ar
    35     8     1    1
    36     9     3    1
    37    35    30   ar
    38    25    26    1
@<TRIPOS>MOLECULE
*****
 35 38 0 0 0
SMALL
GASTEIGER

@<TRIPOS>ATOM
      1 N         138.9348  140.0590  163.5813 N.3     1  UNL1       -0.2684
      2 C         137.9821  140.3007  162.4482 C.3     1  UNL1        0.1035
      3 C         138.4811  140.8870  161.1609 C.3     1  UNL1        0.1470
      4 C         138.9802  141.4734  159.8736 C.3     1  UNL1        0.1035
      5 N         140.4319  141.8179  159.7193 N.3     1  UNL1       -0.2685
      6 C         141.3846  141.5761  160.8525 C.3     1  UNL1        0.1035
      7 C         140.8855  140.9898  162.1398 C.3     1  UNL1        0.1470
      8 C         140.3865  140.4035  163.4271 C.3     1  UNL1        0.1035
      9 O         139.9329  141.2315  161.0067 O.3     1  UNL1       -0.3530
     10 C         138.4357  139.4726  164.8687 C.3     1  UNL1        0.0761
     11 C         138.6283  140.2174  166.1564 C.3     1  UNL1        0.0646
     12 C         139.1709  139.5059  167.3604 C.3     1  UNL1        0.2068
     13 O         140.5292  139.8577  167.8905 O.3     1  UNL1       -0.4754
     14 C         143.8448  140.9363  165.0456 C.ar    1  UNL1        0.0686
     15 C         143.0737  142.0174  165.7432 C.ar    1  UNL1        0.0134
     16 C         141.9685  141.6579  166.6915 C.ar    1  UNL1        0.0376
     17 C         141.6344  140.2172  166.9423 C.ar    1  UNL1        0.1386
     18 C         142.4055  139.1361  166.2447 C.ar    1  UNL1        0.0376
     19 C         143.5107  139.4956  165.2964 C.ar    1  UNL1        0.0134
     20 N         146.0552  141.6553  163.1490 N.1     1  UNL1       -0.1908
     21 C         144.9500  141.2958  164.0973 C.1     1  UNL1        0.1004
     22 C         140.9309  142.4042  158.4320 C.3     1  UNL1        0.0737
     23 C         141.8736  143.5708  158.4549 C.3     1  UNL1        0.0362
     24 C         141.3689  144.9357  158.8186 C.3     1  UNL1        0.0929
     25 N         141.6530  145.5027  160.1779 N.3     1  UNL1       -0.1793
     26 H         141.5481  146.5145  160.1028 H       1  UNL1        0.1488
     27 S         140.8342  145.0689  161.3576 S.O2    1  UNL1        0.0602
     28 O         142.0892  144.7101  162.0966 O.2     1  UNL1       -0.1530
     29 O         139.5793  145.4276  160.6185 O.2     1  UNL1       -0.1530
     30 C         140.0156  144.6351  162.5372 C.ar    1  UNL1        0.1219
     31 C         138.5578  144.3262  162.3655 C.ar    1  UNL1        0.0199
     32 C         137.7391  143.8923  163.5452 C.ar    1  UNL1        0.0014
     33 C         138.3781  143.7675  164.8965 C.ar    1  UNL1        0.0001
     34 C         139.8359  144.0765  165.0681 C.ar    1  UNL1        0.0014
     35 C         140.6546  144.5103  163.8885 C.ar    1  UNL1        0.0199
@<TRIPOS>BOND
     1    20    21    3
     2    21    14    1
     3    14    15   ar
     4    15    16   ar
     5    16    17   ar
     6    17    13    1
     7    13    12    1
     8    12    11    1
     9    11    10    1
    10    10     1    1
    11     1     2    1
    12     2     3    1
    13     3     4    1
    14     4     5    1
    15     5    22    1
    16    22    23    1
    17    23    24    1
    18    24    25    1
    19    25    27    1
    20    27    28    2
    21    27    29    2
    22    27    30    1
    23    30    31   ar
    24    31    32   ar
    25    32    33   ar
    26    33    34   ar
    27    34    35   ar
    28     5     6    1
    29     6     7    1
    30     7     8    1
    31     7     9    1
    32    17    18   ar
    33    18    19   ar
    34    19    14   ar
    35     8     1    1
    36     9     3    1
    37    35    30   ar
    38    25    26    1
@<TRIPOS>MOLECULE
*****
 35 38 0 0 0
SMALL
GASTEIGER

@<TRIPOS>ATOM
      1 N         139.4371  138.0073  163.1699 N.3     1  UNL1       -0.2684
      2 C         140.6123  138.0085  162.2378 C.3     1  UNL1        0.1035
      3 C         140.4821  138.6045  160.8675 C.3     1  UNL1        0.1470
      4 C         140.3518  139.2005  159.4971 C.3     1  UNL1        0.1035
      5 N         139.0464  139.7953  159.0589 N.3     1  UNL1       -0.2685
      6 C         137.8711  139.7940  159.9911 C.3     1  UNL1        0.1035
      7 C         138.0014  139.1980  161.3614 C.3     1  UNL1        0.1470
      8 C         138.1317  138.6021  162.7317 C.3     1  UNL1        0.1035
      9 O         139.1766  139.1993  160.4293 O.3     1  UNL1       -0.3530
     10 C         139.5673  137.4113  164.5403 C.3     1  UNL1        0.0761
     11 C         138.4789  137.6131  165.5525 C.3     1  UNL1        0.0646
     12 C         138.4600  138.8531  166.3964 C.3     1  UNL1        0.2068
     13 O         138.5735  140.2019  165.7503 O.3     1  UNL1       -0.4754
     14 C         142.4864  142.4222  165.8497 C.ar    1  UNL1        0.0686
     15 C         142.0504  141.7266  164.5943 C.ar    1  UNL1        0.0134
     16 C         140.7462  140.9865  164.5611 C.ar    1  UNL1        0.0376
     17 C         139.8777  140.9420  165.7834 C.ar    1  UNL1        0.1386
     18 C         140.3137  141.6376  167.0388 C.ar    1  UNL1        0.0376
     19 C         141.6180  142.3777  167.0719 C.ar    1  UNL1        0.0134
     20 N         145.0950  143.9023  165.9159 N.1     1  UNL1       -0.1908
     21 C         143.7906  143.1623  165.8828 C.1     1  UNL1        0.1004
     22 C         138.9161  140.3912  157.6886 C.3     1  UNL1        0.0737
     23 C         138.2982  141.7472  157.5160 C.3     1  UNL1        0.0362
     24 C         138.7560  142.8939  158.3677 C.3     1  UNL1        0.0929
     25 N         139.7944  142.6733  159.4274 N.3     1  UNL1       -0.1793
     26 H         140.6374  143.1574  159.1188 H       1  UNL1        0.1488
     27 S         139.5330  143.1145  160.8370 S.O2    1  UNL1        0.0602
     28 O         140.9984  143.0121  161.1407 O.2     1  UNL1       -0.1530
     29 O         138.0677  143.2169  160.5334 O.2     1  UNL1       -0.1530
     30 C         139.2717  143.5557  162.2466 C.ar    1  UNL1        0.1219
     31 C         138.0015  143.1530  162.9352 C.ar    1  UNL1        0.0199
     32 C         137.7401  143.5943  164.3449 C.ar    1  UNL1        0.0014
     33 C         138.7491  144.4382  165.0659 C.ar    1  UNL1        0.0001
     34 C         140.0194  144.8408  164.3772 C.ar    1  UNL1        0.0014
     35 C         140.2807  144.3996  162.9676 C.ar    1  UNL1        0.0199
@<TRIPOS>BOND
     1    20    21    3
     2    21    14    1
     3    14    15   ar
     4    15    16   ar
     5    16    17   ar
     6    17    13    1
     7    13    12    1
     8    12    11    1
     9    11    10    1
    10    10     1    1
    11     1     2    1
    12     2     3    1
    13     3     4    1
    14     4     5    1
    15     5    22    1
    16    22    23    1
    17    23    24    1
    18    24    25    1
    19    25    27    1
    20    27    28    2
    21    27    29    2
    22    27    30    1
    23    30    31   ar
    24    31    32   ar
    25    32    33   ar
    26    33    34   ar
    27    34    35   ar
    28     5     6    1
    29     6     7    1
    30     7     8    1
    31     7     9    1
    32    17    18   ar
    33    18    19   ar
    34    19    14   ar
    35     8     1    1
    36     9     3    1
    37    35    30   ar
    38    25    26    1
