@<TRIPOS>MOLECULE
*****
 30 31 0 0 0
SMALL
GASTEIGER

@<TRIPOS>ATOM
      1 N         139.8870  139.5014  164.7076 N.pl3   1  UNL1       -0.3046
      2 C         138.6958  140.3984  164.5449 C.3     1  UNL1        0.1081
      3 C         137.8813  140.3428  163.2865 C.3     1  UNL1        0.0938
      4 N         138.2580  139.3901  162.1908 N.3     1  UNL1       -0.2698
      5 C         139.4492  138.4931  162.3536 C.3     1  UNL1        0.0938
      6 C         140.2637  138.5487  163.6119 C.3     1  UNL1        0.1081
      7 C         140.9459  140.2452  168.4593 C.ar    1  UNL1        0.0515
      8 C         142.3303  139.6683  168.4828 C.ar    1  UNL1        0.0148
      9 C         142.9003  139.0358  167.2479 C.ar    1  UNL1        0.0025
     10 C         142.0858  138.9802  165.9895 C.ar    1  UNL1        0.0146
     11 C         140.7015  139.5570  165.9660 C.ar    1  UNL1        0.0492
     12 C         140.1315  140.1896  167.2010 C.ar    1  UNL1        0.0292
     13 C         139.5665  142.9904  170.9715 C.3     1  UNL1        0.0949
     14 C         140.1365  142.3579  169.7366 C.2     1  UNL1        0.2266
     15 O         140.4670  143.2056  168.5440 O.2     1  UNL1       -0.2748
     16 N         140.3759  140.8778  169.6943 N.am    1  UNL1       -0.2839
     17 H         140.1590  140.3214  170.4770 H       1  UNL1        0.1549
     18 C         137.4436  139.3345  160.9324 C.3     1  UNL1        0.0722
     19 C         137.8750  140.1127  159.7249 C.3     1  UNL1        0.0188
     20 C         138.8524  141.2413  159.8698 C.3     1  UNL1        0.0206
     21 C         138.3889  142.5745  160.3774 C.3     1  UNL1        0.0955
     22 N         139.3592  143.7127  160.4901 N.3     1  UNL1       -0.1580
     23 C         140.2258  144.0781  159.3215 C.3     1  UNL1        0.1145
     24 S         139.4631  144.4857  161.7714 S.O2    1  UNL1        0.0438
     25 O         140.8468  144.9251  161.3942 O.2     1  UNL1       -0.1573
     26 O         138.0793  144.0463  162.1486 O.2     1  UNL1       -0.1573
     27 C         139.5669  145.2586  163.0527 C.3     1  UNL1        0.1690
     28 C         139.6430  144.5322  164.3628 C.3     1  UNL1        0.0253
     29 C         138.6863  144.8737  165.4665 C.3     1  UNL1        0.0019
     30 C         140.6757  143.4641  164.5693 C.3     1  UNL1        0.0019
@<TRIPOS>BOND
     1    13    14    1
     2    14    15    2
     3    14    16   am
     4    16     7    1
     5     7     8   ar
     6     8     9   ar
     7     9    10   ar
     8    10    11   ar
     9    11     1    1
    10     1     2    1
    11     2     3    1
    12     3     4    1
    13     4    18    1
    14    18    19    1
    15    19    20    1
    16    20    21    1
    17    21    22    1
    18    22    23    1
    19    22    24    1
    20    24    25    2
    21    24    26    2
    22    24    27    1
    23    27    28    1
    24    28    29    1
    25    28    30    1
    26     4     5    1
    27     5     6    1
    28    11    12   ar
    29    12     7   ar
    30     6     1    1
    31    16    17    1
@<TRIPOS>MOLECULE
*****
 30 31 0 0 0
SMALL
GASTEIGER

@<TRIPOS>ATOM
      1 N         139.5730  139.6384  165.6252 N.pl3   1  UNL1       -0.3046
      2 C         140.5138  138.6127  165.0660 C.3     1  UNL1        0.1081
      3 C         140.3245  138.1049  163.6672 C.3     1  UNL1        0.0938
      4 N         139.1945  138.6228  162.8278 N.3     1  UNL1       -0.2698
      5 C         138.2536  139.6486  163.3871 C.3     1  UNL1        0.0938
      6 C         138.4429  140.1563  164.7857 C.3     1  UNL1        0.1081
      7 C         141.1039  141.5593  168.7423 C.ar    1  UNL1        0.0515
      8 C         140.1407  141.1618  169.8212 C.ar    1  UNL1        0.0148
      9 C         138.9883  140.2564  169.5015 C.ar    1  UNL1        0.0025
     10 C         138.7990  139.7486  168.1029 C.ar    1  UNL1        0.0146
     11 C         139.7622  140.1462  167.0239 C.ar    1  UNL1        0.0492
     12 C         140.9146  141.0515  167.3436 C.ar    1  UNL1        0.0292
     13 C         144.6130  142.8285  170.0934 C.3     1  UNL1        0.0949
     14 C         143.4605  141.9232  169.7737 C.2     1  UNL1        0.2266
     15 O         143.5124  140.4762  170.1657 O.2     1  UNL1       -0.2748
     16 N         142.2563  142.4647  169.0620 N.am    1  UNL1       -0.2839
     17 H         142.2223  143.4144  168.8047 H       1  UNL1        0.1549
     18 C         139.0052  138.1151  161.4291 C.3     1  UNL1        0.0722
     19 C         138.9956  139.0760  160.2773 C.3     1  UNL1        0.0188
     20 C         140.1549  140.0041  160.0652 C.3     1  UNL1        0.0206
     21 C         140.0951  141.4097  160.5853 C.3     1  UNL1        0.0955
     22 N         140.9144  141.8032  161.7786 N.3     1  UNL1       -0.1580
     23 C         142.1018  140.9782  162.1783 C.3     1  UNL1        0.1145
     24 S         140.5464  143.0217  162.5722 S.O2    1  UNL1        0.0438
     25 O         140.8372  142.2813  163.8439 O.2     1  UNL1       -0.1573
     26 O         140.2556  143.7621  161.3005 O.2     1  UNL1       -0.1573
     27 C         140.1784  144.2402  163.3659 C.3     1  UNL1        0.1690
     28 C         138.8545  144.3064  164.0678 C.3     1  UNL1        0.0253
     29 C         137.6213  143.7817  163.3941 C.3     1  UNL1        0.0019
     30 C         138.7638  144.8973  165.4435 C.3     1  UNL1        0.0019
@<TRIPOS>BOND
     1    13    14    1
     2    14    15    2
     3    14    16   am
     4    16     7    1
     5     7     8   ar
     6     8     9   ar
     7     9    10   ar
     8    10    11   ar
     9    11     1    1
    10     1     2    1
    11     2     3    1
    12     3     4    1
    13     4    18    1
    14    18    19    1
    15    19    20    1
    16    20    21    1
    17    21    22    1
    18    22    23    1
    19    22    24    1
    20    24    25    2
    21    24    26    2
    22    24    27    1
    23    27    28    1
    24    28    29    1
    25    28    30    1
    26     4     5    1
    27     5     6    1
    28    11    12   ar
    29    12     7   ar
    30     6     1    1
    31    16    17    1
@<TRIPOS>MOLECULE
*****
 30 31 0 0 0
SMALL
GASTEIGER

@<TRIPOS>ATOM
      1 N         143.4242  141.2368  165.2714 N.pl3   1  UNL1       -0.3046
      2 C         143.3459  142.3492  166.2745 C.3     1  UNL1        0.1081
      3 C         142.9662  142.0528  167.6951 C.3     1  UNL1        0.0938
      4 N         142.6649  140.6439  168.1125 N.3     1  UNL1       -0.2698
      5 C         142.7432  139.5314  167.1093 C.3     1  UNL1        0.0938
      6 C         143.1229  139.8279  165.6887 C.3     1  UNL1        0.1081
      7 C         144.1191  140.7461  161.3950 C.ar    1  UNL1        0.0515
      8 C         144.5631  142.1260  161.0097 C.ar    1  UNL1        0.0148
      9 C         144.6275  143.2096  162.0449 C.ar    1  UNL1        0.0025
     10 C         144.2479  142.9132  163.4655 C.ar    1  UNL1        0.0146
     11 C         143.8039  141.5332  163.8508 C.ar    1  UNL1        0.0492
     12 C         143.7395  140.4497  162.8155 C.ar    1  UNL1        0.0292
     13 C         142.7233  138.3517  158.5544 C.3     1  UNL1        0.0949
     14 C         142.7877  139.4353  159.5897 C.2     1  UNL1        0.2266
     15 O         141.5850  140.2917  159.8548 O.2     1  UNL1       -0.2748
     16 N         144.0547  139.6625  160.3597 N.am    1  UNL1       -0.2839
     17 H         144.8440  139.1004  160.1857 H       1  UNL1        0.1549
     18 C         142.2852  140.3474  169.5330 C.3     1  UNL1        0.0722
     19 C         140.8889  139.9078  169.8600 C.3     1  UNL1        0.0188
     20 C         139.7243  140.4990  169.1221 C.3     1  UNL1        0.0206
     21 C         139.1051  139.7534  167.9773 C.3     1  UNL1        0.0955
     22 N         139.2913  140.2463  166.5729 N.3     1  UNL1       -0.1580
     23 C         139.6835  141.6727  166.3245 C.3     1  UNL1        0.1145
     24 S         139.0852  139.3129  165.4169 S.O2    1  UNL1        0.0438
     25 O         138.3596  138.3577  166.3175 O.2     1  UNL1       -0.1573
     26 O         139.8108  140.2681  164.5163 O.2     1  UNL1       -0.1573
     27 C         138.8792  138.3795  164.2609 C.3     1  UNL1        0.1690
     28 C         140.0610  137.7467  163.5881 C.3     1  UNL1        0.0253
     29 C         141.0804  137.0067  164.4025 C.3     1  UNL1        0.0019
     30 C         140.2234  137.8538  162.1008 C.3     1  UNL1        0.0019
@<TRIPOS>BOND
     1    13    14    1
     2    14    15    2
     3    14    16   am
     4    16     7    1
     5     7     8   ar
     6     8     9   ar
     7     9    10   ar
     8    10    11   ar
     9    11     1    1
    10     1     2    1
    11     2     3    1
    12     3     4    1
    13     4    18    1
    14    18    19    1
    15    19    20    1
    16    20    21    1
    17    21    22    1
    18    22    23    1
    19    22    24    1
    20    24    25    2
    21    24    26    2
    22    24    27    1
    23    27    28    1
    24    28    29    1
    25    28    30    1
    26     4     5    1
    27     5     6    1
    28    11    12   ar
    29    12     7   ar
    30     6     1    1
    31    16    17    1
@<TRIPOS>MOLECULE
*****
 30 31 0 0 0
SMALL
GASTEIGER

@<TRIPOS>ATOM
      1 N         139.5669  139.9373  163.7461 N.pl3   1  UNL1       -0.3046
      2 C         138.4010  139.5769  162.8738 C.3     1  UNL1        0.1081
      3 C         138.5456  139.6010  161.3809 C.3     1  UNL1        0.0938
      4 N         139.8560  139.9853  160.7604 N.3     1  UNL1       -0.2698
      5 C         141.0219  140.3456  161.6328 C.3     1  UNL1        0.0938
      6 C         140.8773  140.3216  163.1255 C.3     1  UNL1        0.1081
      7 C         140.2104  140.6931  167.5885 C.ar    1  UNL1        0.0515
      8 C         139.1333  139.8653  168.2245 C.ar    1  UNL1        0.0148
      9 C         138.2008  139.0614  167.3677 C.ar    1  UNL1        0.0025
     10 C         138.3453  139.0853  165.8749 C.ar    1  UNL1        0.0146
     11 C         139.4223  139.9132  165.2389 C.ar    1  UNL1        0.0492
     12 C         140.3549  140.7171  166.0957 C.ar    1  UNL1        0.0292
     13 C         143.4211  141.7488  169.6686 C.3     1  UNL1        0.0949
     14 C         142.4886  140.9449  168.8118 C.2     1  UNL1        0.2266
     15 O         142.9017  139.5888  168.3214 O.2     1  UNL1       -0.2748
     16 N         141.1429  141.4970  168.4453 N.am    1  UNL1       -0.2839
     17 H         140.8717  142.3871  168.7672 H       1  UNL1        0.1549
     18 C         140.0006  140.0093  159.2676 C.3     1  UNL1        0.0722
     19 C         139.8060  141.2927  158.5158 C.3     1  UNL1        0.0188
     20 C         139.1893  142.4766  159.2001 C.3     1  UNL1        0.0206
     21 C         139.9405  143.7725  159.2790 C.3     1  UNL1        0.0955
     22 N         140.8361  144.0501  160.4498 N.3     1  UNL1       -0.1580
     23 C         142.2812  143.6509  160.4000 C.3     1  UNL1        0.1145
     24 S         140.2866  144.7268  161.6706 S.O2    1  UNL1        0.0438
     25 O         139.5015  145.6616  160.7989 O.2     1  UNL1       -0.1573
     26 O         141.0717  143.7920  162.5422 O.2     1  UNL1       -0.1573
     27 C         139.7372  145.4035  162.8913 C.3     1  UNL1        0.1690
     28 C         138.7755  144.6759  163.7833 C.3     1  UNL1        0.0253
     29 C         137.6360  143.9042  163.1867 C.3     1  UNL1        0.0019
     30 C         138.9534  144.7201  165.2721 C.3     1  UNL1        0.0019
@<TRIPOS>BOND
     1    13    14    1
     2    14    15    2
     3    14    16   am
     4    16     7    1
     5     7     8   ar
     6     8     9   ar
     7     9    10   ar
     8    10    11   ar
     9    11     1    1
    10     1     2    1
    11     2     3    1
    12     3     4    1
    13     4    18    1
    14    18    19    1
    15    19    20    1
    16    20    21    1
    17    21    22    1
    18    22    23    1
    19    22    24    1
    20    24    25    2
    21    24    26    2
    22    24    27    1
    23    27    28    1
    24    28    29    1
    25    28    30    1
    26     4     5    1
    27     5     6    1
    28    11    12   ar
    29    12     7   ar
    30     6     1    1
    31    16    17    1
@<TRIPOS>MOLECULE
*****
 30 31 0 0 0
SMALL
GASTEIGER

@<TRIPOS>ATOM
      1 N         139.0971  141.3730  163.9452 N.pl3   1  UNL1       -0.3046
      2 C         138.0059  142.3288  163.5636 C.3     1  UNL1        0.1081
      3 C         137.9198  142.8466  162.1584 C.3     1  UNL1        0.0938
      4 N         138.9249  142.4086  161.1348 N.3     1  UNL1       -0.2698
      5 C         140.0162  141.4527  161.5165 C.3     1  UNL1        0.0938
      6 C         140.1022  140.9349  162.9216 C.3     1  UNL1        0.1081
      7 C         140.3396  140.8430  167.6769 C.ar    1  UNL1        0.0515
      8 C         139.3554  139.8196  168.1607 C.ar    1  UNL1        0.0148
      9 C         138.2851  139.3141  167.2393 C.ar    1  UNL1        0.0025
     10 C         138.1989  139.8318  165.8342 C.ar    1  UNL1        0.0146
     11 C         139.1831  140.8552  165.3504 C.ar    1  UNL1        0.0492
     12 C         140.2535  141.3607  166.2717 C.ar    1  UNL1        0.0292
     13 C         142.3214  143.1837  170.1955 C.3     1  UNL1        0.0949
     14 C         141.2511  142.6781  169.2741 C.2     1  UNL1        0.2266
     15 O         140.0220  143.5022  169.0287 O.2     1  UNL1       -0.2748
     16 N         141.4099  141.3485  168.5982 N.am    1  UNL1       -0.2839
     17 H         142.2166  140.8077  168.7592 H       1  UNL1        0.1549
     18 C         138.8389  142.9263  159.7297 C.3     1  UNL1        0.0722
     19 C         140.0905  143.2825  158.9838 C.3     1  UNL1        0.0188
     20 C         140.9493  144.4172  159.4583 C.3     1  UNL1        0.0206
     21 C         142.0747  144.1568  160.4151 C.3     1  UNL1        0.0955
     22 N         141.9234  144.5102  161.8650 N.3     1  UNL1       -0.1580
     23 C         140.7312  145.2958  162.3250 C.3     1  UNL1        0.1145
     24 S         142.9643  144.0781  162.8549 S.O2    1  UNL1        0.0438
     25 O         143.9720  143.9717  161.7489 O.2     1  UNL1       -0.1573
     26 O         141.9566  144.1844  163.9609 O.2     1  UNL1       -0.1573
     27 C         144.0051  143.6460  163.8448 C.3     1  UNL1        0.1690
     28 C         144.4091  142.2037  163.9270 C.3     1  UNL1        0.0253
     29 C         145.7695  141.7781  163.4599 C.3     1  UNL1        0.0019
     30 C         143.4526  141.1871  164.4761 C.3     1  UNL1        0.0019
@<TRIPOS>BOND
     1    13    14    1
     2    14    15    2
     3    14    16   am
     4    16     7    1
     5     7     8   ar
     6     8     9   ar
     7     9    10   ar
     8    10    11   ar
     9    11     1    1
    10     1     2    1
    11     2     3    1
    12     3     4    1
    13     4    18    1
    14    18    19    1
    15    19    20    1
    16    20    21    1
    17    21    22    1
    18    22    23    1
    19    22    24    1
    20    24    25    2
    21    24    26    2
    22    24    27    1
    23    27    28    1
    24    28    29    1
    25    28    30    1
    26     4     5    1
    27     5     6    1
    28    11    12   ar
    29    12     7   ar
    30     6     1    1
    31    16    17    1
@<TRIPOS>MOLECULE
*****
 30 31 0 0 0
SMALL
GASTEIGER

@<TRIPOS>ATOM
      1 N         143.5767  140.9234  163.4293 N.pl3   1  UNL1       -0.3046
      2 C         143.9489  142.3688  163.2801 C.3     1  UNL1        0.1081
      3 C         144.1999  142.9417  161.9166 C.3     1  UNL1        0.0938
      4 N         144.0787  142.0692  160.7026 N.3     1  UNL1       -0.2698
      5 C         143.7065  140.6237  160.8519 C.3     1  UNL1        0.0938
      6 C         143.4555  140.0509  162.2152 C.3     1  UNL1        0.1081
      7 C         142.3391  140.5842  167.1848 C.ar    1  UNL1        0.0515
      8 C         142.8238  139.2047  167.5195 C.ar    1  UNL1        0.0148
      9 C         143.5595  138.3981  166.4908 C.ar    1  UNL1        0.0025
     10 C         143.8105  138.9710  165.1274 C.ar    1  UNL1        0.0146
     11 C         143.3258  140.3505  164.7928 C.ar    1  UNL1        0.0492
     12 C         142.5901  141.1571  165.8214 C.ar    1  UNL1        0.0292
     13 C         141.5924  143.2481  170.0301 C.3     1  UNL1        0.0949
     14 C         142.3280  142.4415  169.0014 C.2     1  UNL1        0.2266
     15 O         143.7884  142.6856  168.7608 O.2     1  UNL1       -0.2748
     16 N         141.6034  141.3908  168.2134 N.am    1  UNL1       -0.2839
     17 H         140.6450  141.2306  168.3714 H       1  UNL1        0.1549
     18 C         144.3296  142.6421  159.3392 C.3     1  UNL1        0.0722
     19 C         143.1852  142.8565  158.3936 C.3     1  UNL1        0.0188
     20 C         142.3779  144.1187  158.4671 C.3     1  UNL1        0.0206
     21 C         141.6272  144.4569  159.7209 C.3     1  UNL1        0.0955
     22 N         140.3257  143.7751  160.0227 N.3     1  UNL1       -0.1580
     23 C         139.4715  143.2598  158.9025 C.3     1  UNL1        0.1145
     24 S         139.8784  143.6085  161.4448 S.O2    1  UNL1        0.0438
     25 O         140.6835  142.3473  161.5503 O.2     1  UNL1       -0.1573
     26 O         139.0733  144.8697  161.3392 O.2     1  UNL1       -0.1573
     27 C         139.4311  143.4419  162.8668 C.3     1  UNL1        0.1690
     28 C         139.9218  144.3872  163.9230 C.3     1  UNL1        0.0253
     29 C         138.9978  144.8353  165.0164 C.3     1  UNL1        0.0019
     30 C         141.3365  144.8843  163.8859 C.3     1  UNL1        0.0019
@<TRIPOS>BOND
     1    13    14    1
     2    14    15    2
     3    14    16   am
     4    16     7    1
     5     7     8   ar
     6     8     9   ar
     7     9    10   ar
     8    10    11   ar
     9    11     1    1
    10     1     2    1
    11     2     3    1
    12     3     4    1
    13     4    18    1
    14    18    19    1
    15    19    20    1
    16    20    21    1
    17    21    22    1
    18    22    23    1
    19    22    24    1
    20    24    25    2
    21    24    26    2
    22    24    27    1
    23    27    28    1
    24    28    29    1
    25    28    30    1
    26     4     5    1
    27     5     6    1
    28    11    12   ar
    29    12     7   ar
    30     6     1    1
    31    16    17    1
@<TRIPOS>MOLECULE
*****
 30 31 0 0 0
SMALL
GASTEIGER

@<TRIPOS>ATOM
      1 N         141.0885  138.7505  164.1969 N.pl3   1  UNL1       -0.3046
      2 C         142.5788  138.8619  164.0686 C.3     1  UNL1        0.1081
      3 C         143.2471  138.5244  162.7688 C.3     1  UNL1        0.0938
      4 N         142.4250  138.0754  161.5972 N.3     1  UNL1       -0.2698
      5 C         140.9346  137.9639  161.7255 C.3     1  UNL1        0.0938
      6 C         140.2664  138.3014  163.0253 C.3     1  UNL1        0.1081
      7 C         140.5126  140.1556  167.8635 C.ar    1  UNL1        0.0515
      8 C         139.0837  139.7631  168.0963 C.ar    1  UNL1        0.0148
      9 C         138.3231  139.0331  167.0293 C.ar    1  UNL1        0.0025
     10 C         138.9913  138.6955  165.7295 C.ar    1  UNL1        0.0146
     11 C         140.4202  139.0880  165.4967 C.ar    1  UNL1        0.0492
     12 C         141.1808  139.8180  166.5637 C.ar    1  UNL1        0.0292
     13 C         141.9795  143.1130  170.0661 C.3     1  UNL1        0.0949
     14 C         141.2188  142.3830  168.9991 C.2     1  UNL1        0.2266
     15 O         140.4037  143.1505  168.0007 O.2     1  UNL1       -0.2748
     16 N         141.2732  140.8856  168.9305 N.am    1  UNL1       -0.2839
     17 H         141.8082  140.3819  169.5858 H       1  UNL1        0.1549
     18 C         143.0932  137.7379  160.2974 C.3     1  UNL1        0.0722
     19 C         143.0464  138.7094  159.1556 C.3     1  UNL1        0.0188
     20 C         143.6970  140.0545  159.2881 C.3     1  UNL1        0.0206
     21 C         142.8812  141.2454  159.6956 C.3     1  UNL1        0.0955
     22 N         143.3121  142.0867  160.8602 N.3     1  UNL1       -0.1580
     23 C         144.7713  142.2569  161.1634 C.3     1  UNL1        0.1145
     24 S         142.2839  142.7579  161.7217 S.O2    1  UNL1        0.0438
     25 O         143.0280  144.0546  161.5996 O.2     1  UNL1       -0.1573
     26 O         141.5398  141.4613  161.8439 O.2     1  UNL1       -0.1573
     27 C         141.2557  143.4291  162.5833 C.3     1  UNL1        0.1690
     28 C         141.1016  143.0255  164.0197 C.3     1  UNL1        0.0253
     29 C         139.7465  142.6756  164.5592 C.3     1  UNL1        0.0019
     30 C         142.3027  142.9719  164.9165 C.3     1  UNL1        0.0019
@<TRIPOS>BOND
     1    13    14    1
     2    14    15    2
     3    14    16   am
     4    16     7    1
     5     7     8   ar
     6     8     9   ar
     7     9    10   ar
     8    10    11   ar
     9    11     1    1
    10     1     2    1
    11     2     3    1
    12     3     4    1
    13     4    18    1
    14    18    19    1
    15    19    20    1
    16    20    21    1
    17    21    22    1
    18    22    23    1
    19    22    24    1
    20    24    25    2
    21    24    26    2
    22    24    27    1
    23    27    28    1
    24    28    29    1
    25    28    30    1
    26     4     5    1
    27     5     6    1
    28    11    12   ar
    29    12     7   ar
    30     6     1    1
    31    16    17    1
@<TRIPOS>MOLECULE
*****
 30 31 0 0 0
SMALL
GASTEIGER

@<TRIPOS>ATOM
      1 N         142.8367  141.1446  162.4367 N.pl3   1  UNL1       -0.3046
      2 C         142.4354  140.5073  161.1394 C.3     1  UNL1        0.1081
      3 C         142.4940  141.2977  159.8658 C.3     1  UNL1        0.0938
      4 N         142.9538  142.7252  159.8895 N.3     1  UNL1       -0.2698
      5 C         143.3551  143.3625  161.1868 C.3     1  UNL1        0.0938
      6 C         143.2965  142.5722  162.4604 C.3     1  UNL1        0.1081
      7 C         141.4532  139.5289  165.7871 C.ar    1  UNL1        0.0515
      8 C         142.6609  138.7738  166.2574 C.ar    1  UNL1        0.0148
      9 C         143.9272  138.8089  165.4541 C.ar    1  UNL1        0.0025
     10 C         143.9858  139.5991  164.1806 C.ar    1  UNL1        0.0146
     11 C         142.7781  140.3543  163.7103 C.ar    1  UNL1        0.0492
     12 C         141.5118  140.3192  164.5136 C.ar    1  UNL1        0.0292
     13 C         137.7570  138.6369  166.9240 C.3     1  UNL1        0.0949
     14 C         139.0233  138.6720  166.1207 C.2     1  UNL1        0.2266
     15 O         139.1259  137.8853  164.8476 O.2     1  UNL1       -0.2748
     16 N         140.1869  139.4938  166.5904 N.am    1  UNL1       -0.2839
     17 H         140.1195  140.0101  167.4260 H       1  UNL1        0.1549
     18 C         143.0124  143.5156  158.6160 C.3     1  UNL1        0.0722
     19 C         142.1036  144.6930  158.4216 C.3     1  UNL1        0.0188
     20 C         140.6314  144.5538  158.6733 C.3     1  UNL1        0.0206
     21 C         140.0990  144.6342  160.0733 C.3     1  UNL1        0.0955
     22 N         139.2138  143.5452  160.6027 N.3     1  UNL1       -0.1580
     23 C         138.6319  142.5292  159.6649 C.3     1  UNL1        0.1145
     24 S         138.9103  143.4721  162.0698 S.O2    1  UNL1        0.0438
     25 O         139.4843  142.0872  162.1196 O.2     1  UNL1       -0.1573
     26 O         138.3363  144.8570  162.0201 O.2     1  UNL1       -0.1573
     27 C         138.6068  143.3990  163.5370 C.3     1  UNL1        0.1690
     28 C         139.3419  144.2835  164.4999 C.3     1  UNL1        0.0253
     29 C         140.8235  144.4734  164.3628 C.3     1  UNL1        0.0019
     30 C         138.5953  144.9782  165.5999 C.3     1  UNL1        0.0019
@<TRIPOS>BOND
     1    13    14    1
     2    14    15    2
     3    14    16   am
     4    16     7    1
     5     7     8   ar
     6     8     9   ar
     7     9    10   ar
     8    10    11   ar
     9    11     1    1
    10     1     2    1
    11     2     3    1
    12     3     4    1
    13     4    18    1
    14    18    19    1
    15    19    20    1
    16    20    21    1
    17    21    22    1
    18    22    23    1
    19    22    24    1
    20    24    25    2
    21    24    26    2
    22    24    27    1
    23    27    28    1
    24    28    29    1
    25    28    30    1
    26     4     5    1
    27     5     6    1
    28    11    12   ar
    29    12     7   ar
    30     6     1    1
    31    16    17    1
@<TRIPOS>MOLECULE
*****
 30 31 0 0 0
SMALL
GASTEIGER

@<TRIPOS>ATOM
      1 N         142.4731  140.8067  163.5823 N.pl3   1  UNL1       -0.3046
      2 C         141.4706  140.2426  162.6196 C.3     1  UNL1        0.1081
      3 C         141.3510  140.8170  161.2391 C.3     1  UNL1        0.0938
      4 N         142.2339  141.9554  160.8213 N.3     1  UNL1       -0.2698
      5 C         143.2363  142.5195  161.7841 C.3     1  UNL1        0.0938
      6 C         143.3559  141.9452  163.1646 C.3     1  UNL1        0.1081
      7 C         142.0334  140.3334  167.4980 C.ar    1  UNL1        0.0515
      8 C         142.8319  139.0838  167.7239 C.ar    1  UNL1        0.0148
      9 C         143.5107  138.4086  166.5693 C.ar    1  UNL1        0.0025
     10 C         143.3911  138.9828  165.1888 C.ar    1  UNL1        0.0146
     11 C         142.5927  140.2324  164.9629 C.ar    1  UNL1        0.0492
     12 C         141.9138  140.9076  166.1175 C.ar    1  UNL1        0.0292
     13 C         139.2821  141.2866  170.1946 C.3     1  UNL1        0.0949
     14 C         139.9609  140.6114  169.0400 C.2     1  UNL1        0.2266
     15 O         139.2461  139.5388  168.2726 O.2     1  UNL1       -0.2748
     16 N         141.3545  141.0086  168.6527 N.am    1  UNL1       -0.2839
     17 H         141.8237  141.7126  169.1563 H       1  UNL1        0.1549
     18 C         142.1143  142.5298  159.4408 C.3     1  UNL1        0.0722
     19 C         142.0933  144.0169  159.2465 C.3     1  UNL1        0.0188
     20 C         140.8825  144.8082  159.6440 C.3     1  UNL1        0.0206
     21 C         139.8287  144.1830  160.5091 C.3     1  UNL1        0.0955
     22 N         139.8950  144.3348  161.9999 N.3     1  UNL1       -0.1580
     23 C         140.9090  145.2527  162.6160 C.3     1  UNL1        0.1145
     24 S         138.9474  143.5687  162.8747 S.O2    1  UNL1        0.0438
     25 O         137.8232  143.8843  161.9332 O.2     1  UNL1       -0.1573
     26 O         140.0717  143.2532  163.8162 O.2     1  UNL1       -0.1573
     27 C         137.9999  142.8027  163.7495 C.3     1  UNL1        0.1690
     28 C         138.0091  141.3028  163.7322 C.3     1  UNL1        0.0253
     29 C         138.2845  140.5399  164.9939 C.3     1  UNL1        0.0019
     30 C         137.7430  140.5660  162.4531 C.3     1  UNL1        0.0019
@<TRIPOS>BOND
     1    13    14    1
     2    14    15    2
     3    14    16   am
     4    16     7    1
     5     7     8   ar
     6     8     9   ar
     7     9    10   ar
     8    10    11   ar
     9    11     1    1
    10     1     2    1
    11     2     3    1
    12     3     4    1
    13     4    18    1
    14    18    19    1
    15    19    20    1
    16    20    21    1
    17    21    22    1
    18    22    23    1
    19    22    24    1
    20    24    25    2
    21    24    26    2
    22    24    27    1
    23    27    28    1
    24    28    29    1
    25    28    30    1
    26     4     5    1
    27     5     6    1
    28    11    12   ar
    29    12     7   ar
    30     6     1    1
    31    16    17    1
