@<TRIPOS>MOLECULE
*****
 30 34 0 0 0
SMALL
GASTEIGER

@<TRIPOS>ATOM
      1 O         141.5278  144.4354  156.7185 O.2     1  UNL1       -0.2526
      2 C         140.9610  145.0884  157.9442 C.2     1  UNL1        0.3039
      3 N         139.8675  146.1069  157.8137 N.am    1  UNL1       -0.2901
      4 N         141.4876  144.7229  159.3003 N.am    1  UNL1       -0.2642
      5 C         142.5811  143.7044  159.4307 C.3     1  UNL1        0.0954
      6 C         143.1078  143.3389  160.7868 C.3     1  UNL1        0.0309
      7 C         142.5409  143.9919  162.0125 C.3     1  UNL1        0.0827
      8 C         141.4474  145.0104  161.8821 C.3     1  UNL1        0.0309
      9 C         140.9208  145.3759  160.5260 C.3     1  UNL1        0.0954
     10 H         139.4954  146.5354  158.6182 H       1  UNL1        0.1509
     11 C         143.0675  143.6264  163.3687 C.ar    1  UNL1        0.2362
     12 N         142.4678  142.6203  164.3056 N.ar    1  UNL1       -0.1895
     13 C         143.3159  142.5749  165.5420 C.ar    1  UNL1        0.2210
     14 N         144.4399  143.5531  165.3691 N.ar    1  UNL1       -0.0544
     15 O         144.2863  144.2030  164.0260 O.2     1  UNL1       -0.3370
     16 C         143.0813  141.7042  166.7407 C.ar    1  UNL1        0.1203
     17 C         143.1543  142.2907  168.1193 C.ar    1  UNL1        0.0224
     18 C         142.9197  141.4201  169.3181 C.ar    1  UNL1        0.0032
     19 C         142.6121  139.9630  169.1382 C.ar    1  UNL1        0.0207
     20 C         142.5392  139.3766  167.7595 C.ar    1  UNL1        0.0989
     21 N         142.7738  140.2473  166.5607 N.ar    1  UNL1       -0.2406
     22 C         139.3408  146.4724  156.4576 C.3     1  UNL1        0.0774
     23 C         138.6982  146.0725  155.1626 C.3     1  UNL1        0.0259
     24 C         139.0713  147.5052  155.4038 C.3     1  UNL1        0.0420
     25 C         139.1311  148.9288  154.9347 C.ar    1  UNL1       -0.0208
     26 C         138.5244  150.0190  155.7674 C.ar    1  UNL1       -0.0042
     27 C         138.5843  151.4424  155.2983 C.ar    1  UNL1       -0.0003
     28 C         139.2507  151.7757  153.9964 C.ar    1  UNL1       -0.0000
     29 C         139.8574  150.6855  153.1637 C.ar    1  UNL1       -0.0003
     30 C         139.7976  149.2621  153.6329 C.ar    1  UNL1       -0.0042
@<TRIPOS>BOND
     1     1     2    2
     2     2     3   am
     3    22     3    1
     4    22    23    1
     5    23    24    1
     6    24    25    1
     7    25    26   ar
     8    26    27   ar
     9    27    28   ar
    10    28    29   ar
    11    29    30   ar
    12     2     4   am
    13     4     5    1
    14     5     6    1
    15     6     7    1
    16     7    11    1
    17    11    12   ar
    18    12    13   ar
    19    13    16    1
    20    16    17   ar
    21    17    18   ar
    22    18    19   ar
    23    19    20   ar
    24    20    21   ar
    25    13    14   ar
    26    14    15   ar
    27     7     8    1
    28     8     9    1
    29    24    22    1
    30    30    25   ar
    31     9     4    1
    32    15    11   ar
    33    21    16   ar
    34     3    10    1
@<TRIPOS>MOLECULE
*****
 30 34 0 0 0
SMALL
GASTEIGER

@<TRIPOS>ATOM
      1 O         142.3712  138.5566  165.4300 O.2     1  UNL1       -0.2526
      2 C         141.3863  138.9397  164.3655 C.2     1  UNL1        0.3039
      3 N         140.0617  139.5311  164.7470 N.am    1  UNL1       -0.2901
      4 N         141.7262  138.7315  162.9194 N.am    1  UNL1       -0.2642
      5 C         143.0509  138.1402  162.5379 C.3     1  UNL1        0.0954
      6 C         143.3907  137.9320  161.0918 C.3     1  UNL1        0.0309
      7 C         142.4058  138.3152  160.0272 C.3     1  UNL1        0.0827
      8 C         141.0812  138.9065  160.4087 C.3     1  UNL1        0.0309
      9 C         140.7413  139.1147  161.8548 C.3     1  UNL1        0.0954
     10 H         139.4153  139.7825  164.0483 H       1  UNL1        0.1509
     11 C         142.7456  138.1070  158.5811 C.ar    1  UNL1        0.2362
     12 N         142.1491  137.0706  157.6756 N.ar    1  UNL1       -0.1895
     13 C         142.7764  137.2217  156.3214 C.ar    1  UNL1        0.2210
     14 N         143.7607  138.3515  156.3901 N.ar    1  UNL1       -0.0544
     15 O         143.7417  138.8986  157.7867 O.2     1  UNL1       -0.3370
     16 C         142.4727  136.3892  155.1112 C.ar    1  UNL1        0.1203
     17 C         142.6116  134.8969  155.1733 C.ar    1  UNL1        0.0224
     18 C         142.3079  134.0643  153.9632 C.ar    1  UNL1        0.0032
     19 C         141.8654  134.7240  152.6908 C.ar    1  UNL1        0.0207
     20 C         141.7266  136.2163  152.6286 C.ar    1  UNL1        0.0989
     21 N         142.0303  137.0489  153.8389 N.ar    1  UNL1       -0.2406
     22 C         139.7219  139.7392  166.1931 C.3     1  UNL1        0.0774
     23 C         138.8182  139.4900  167.3640 C.3     1  UNL1        0.0259
     24 C         140.0370  140.3491  167.5268 C.3     1  UNL1        0.0420
     25 C         140.9226  141.1972  168.3908 C.ar    1  UNL1       -0.0208
     26 C         140.3637  142.4080  169.0773 C.ar    1  UNL1       -0.0042
     27 C         141.2493  143.2561  169.9412 C.ar    1  UNL1       -0.0003
     28 C         142.6939  142.8932  170.1186 C.ar    1  UNL1       -0.0000
     29 C         143.2529  141.6824  169.4321 C.ar    1  UNL1       -0.0003
     30 C         142.3673  140.8344  168.5682 C.ar    1  UNL1       -0.0042
@<TRIPOS>BOND
     1     1     2    2
     2     2     3   am
     3    22     3    1
     4    22    23    1
     5    23    24    1
     6    24    25    1
     7    25    26   ar
     8    26    27   ar
     9    27    28   ar
    10    28    29   ar
    11    29    30   ar
    12     2     4   am
    13     4     5    1
    14     5     6    1
    15     6     7    1
    16     7    11    1
    17    11    12   ar
    18    12    13   ar
    19    13    16    1
    20    16    17   ar
    21    17    18   ar
    22    18    19   ar
    23    19    20   ar
    24    20    21   ar
    25    13    14   ar
    26    14    15   ar
    27     7     8    1
    28     8     9    1
    29    24    22    1
    30    30    25   ar
    31     9     4    1
    32    15    11   ar
    33    21    16   ar
    34     3    10    1
@<TRIPOS>MOLECULE
*****
 30 34 0 0 0
SMALL
GASTEIGER

@<TRIPOS>ATOM
      1 O         139.6669  143.6904  157.1283 O.2     1  UNL1       -0.2526
      2 C         139.9761  144.7520  158.1420 C.2     1  UNL1        0.3039
      3 N         139.9420  146.1986  157.7473 N.am    1  UNL1       -0.2901
      4 N         140.3195  144.3667  159.5505 N.am    1  UNL1       -0.2642
      5 C         140.3536  142.9200  159.9452 C.3     1  UNL1        0.0954
      6 C         140.6969  142.5347  161.3536 C.3     1  UNL1        0.0309
      7 C         141.0062  143.5963  162.3674 C.3     1  UNL1        0.0827
      8 C         140.9720  145.0430  161.9726 C.3     1  UNL1        0.0309
      9 C         140.6287  145.4282  160.5641 C.3     1  UNL1        0.0954
     10 H         140.1450  146.8953  158.4126 H       1  UNL1        0.1509
     11 C         141.3495  143.2111  163.7758 C.ar    1  UNL1        0.2362
     12 N         140.3807  142.7554  164.8264 N.ar    1  UNL1       -0.1895
     13 C         141.1543  142.4766  166.0808 C.ar    1  UNL1        0.2210
     14 N         142.6014  142.7600  165.8056 N.ar    1  UNL1       -0.0544
     15 O         142.7220  143.2140  164.3810 O.2     1  UNL1       -0.3370
     16 C         140.5815  141.9983  167.3820 C.ar    1  UNL1        0.1203
     17 C         139.9631  140.6348  167.4732 C.ar    1  UNL1        0.0224
     18 C         139.3902  140.1565  168.7744 C.ar    1  UNL1        0.0032
     19 C         139.4359  141.0417  169.9844 C.ar    1  UNL1        0.0207
     20 C         140.0543  142.4052  169.8933 C.ar    1  UNL1        0.0989
     21 N         140.6271  142.8836  168.5920 N.ar    1  UNL1       -0.2406
     22 C         139.5987  146.5839  156.3388 C.3     1  UNL1        0.0774
     23 C         139.2681  146.1927  154.9290 C.3     1  UNL1        0.0259
     24 C         139.3346  147.6422  155.3092 C.3     1  UNL1        0.0420
     25 C         139.2204  149.0901  154.9343 C.ar    1  UNL1       -0.0208
     26 C         139.7856  149.5745  153.6320 C.ar    1  UNL1       -0.0042
     27 C         139.6714  151.0224  153.2572 C.ar    1  UNL1       -0.0003
     28 C         138.9921  151.9859  154.1846 C.ar    1  UNL1       -0.0000
     29 C         138.4270  151.5016  155.4869 C.ar    1  UNL1       -0.0003
     30 C         138.5411  150.0537  155.8617 C.ar    1  UNL1       -0.0042
@<TRIPOS>BOND
     1     1     2    2
     2     2     3   am
     3    22     3    1
     4    22    23    1
     5    23    24    1
     6    24    25    1
     7    25    26   ar
     8    26    27   ar
     9    27    28   ar
    10    28    29   ar
    11    29    30   ar
    12     2     4   am
    13     4     5    1
    14     5     6    1
    15     6     7    1
    16     7    11    1
    17    11    12   ar
    18    12    13   ar
    19    13    16    1
    20    16    17   ar
    21    17    18   ar
    22    18    19   ar
    23    19    20   ar
    24    20    21   ar
    25    13    14   ar
    26    14    15   ar
    27     7     8    1
    28     8     9    1
    29    24    22    1
    30    30    25   ar
    31     9     4    1
    32    15    11   ar
    33    21    16   ar
    34     3    10    1
@<TRIPOS>MOLECULE
*****
 30 34 0 0 0
SMALL
GASTEIGER

@<TRIPOS>ATOM
      1 O         144.2082  139.6000  158.6195 O.2     1  UNL1       -0.2526
      2 C         143.3823  138.6345  159.4168 C.2     1  UNL1        0.3039
      3 N         142.6907  137.4941  158.7305 N.am    1  UNL1       -0.2901
      4 N         143.2481  138.8094  160.9005 N.am    1  UNL1       -0.2642
      5 C         143.9398  139.9499  161.5869 C.3     1  UNL1        0.0954
      6 C         143.8055  140.1249  163.0706 C.3     1  UNL1        0.0309
      7 C         142.9797  139.1593  163.8679 C.3     1  UNL1        0.0827
      8 C         142.2881  138.0189  163.1816 C.3     1  UNL1        0.0309
      9 C         142.4223  137.8440  161.6979 C.3     1  UNL1        0.0954
     10 H         142.1487  136.8604  159.2539 H       1  UNL1        0.1509
     11 C         142.8455  139.3343  165.3517 C.ar    1  UNL1        0.2362
     12 N         142.0163  140.3741  166.0454 N.ar    1  UNL1       -0.1895
     13 C         142.1752  140.1826  167.5246 C.ar    1  UNL1        0.2210
     14 N         143.1026  139.0244  167.7451 N.ar    1  UNL1       -0.0544
     15 O         143.5168  138.5002  166.4021 O.2     1  UNL1       -0.3370
     16 C         141.5216  141.0050  168.5954 C.ar    1  UNL1        0.1203
     17 C         141.1181  142.4216  168.3118 C.ar    1  UNL1        0.0224
     18 C         140.4644  143.2440  169.3824 C.ar    1  UNL1        0.0032
     19 C         140.2142  142.6497  170.7368 C.ar    1  UNL1        0.0207
     20 C         140.6176  141.2331  171.0204 C.ar    1  UNL1        0.0989
     21 N         141.2713  140.4107  169.9496 N.ar    1  UNL1       -0.2406
     22 C         142.8249  137.3191  157.2468 C.3     1  UNL1        0.0774
     23 C         143.1085  137.8953  155.8913 C.3     1  UNL1        0.0259
     24 C         142.7738  136.4399  156.0326 C.3     1  UNL1        0.0420
     25 C         142.5510  135.0920  155.4131 C.ar    1  UNL1       -0.0208
     26 C         142.5915  133.8588  156.2660 C.ar    1  UNL1       -0.0042
     27 C         142.3687  132.5110  155.6465 C.ar    1  UNL1       -0.0003
     28 C         142.1055  132.3964  154.1742 C.ar    1  UNL1       -0.0000
     29 C         142.0651  133.6297  153.3214 C.ar    1  UNL1       -0.0003
     30 C         142.2878  134.9775  153.9409 C.ar    1  UNL1       -0.0042
@<TRIPOS>BOND
     1     1     2    2
     2     2     3   am
     3    22     3    1
     4    22    23    1
     5    23    24    1
     6    24    25    1
     7    25    26   ar
     8    26    27   ar
     9    27    28   ar
    10    28    29   ar
    11    29    30   ar
    12     2     4   am
    13     4     5    1
    14     5     6    1
    15     6     7    1
    16     7    11    1
    17    11    12   ar
    18    12    13   ar
    19    13    16    1
    20    16    17   ar
    21    17    18   ar
    22    18    19   ar
    23    19    20   ar
    24    20    21   ar
    25    13    14   ar
    26    14    15   ar
    27     7     8    1
    28     8     9    1
    29    24    22    1
    30    30    25   ar
    31     9     4    1
    32    15    11   ar
    33    21    16   ar
    34     3    10    1
@<TRIPOS>MOLECULE
*****
 30 34 0 0 0
SMALL
GASTEIGER

@<TRIPOS>ATOM
      1 O         141.9568  138.2001  165.0886 O.2     1  UNL1       -0.2526
      2 C         141.1984  138.9011  164.0007 C.2     1  UNL1        0.3039
      3 N         139.8486  139.4894  164.2865 N.am    1  UNL1       -0.2901
      4 N         141.7900  139.0138  162.6269 N.am    1  UNL1       -0.2642
      5 C         143.1400  138.4254  162.3410 C.3     1  UNL1        0.0954
      6 C         143.7316  138.5381  160.9672 C.3     1  UNL1        0.0309
      7 C         142.9732  139.2391  159.8793 C.3     1  UNL1        0.0827
      8 C         141.6234  139.8274  160.1651 C.3     1  UNL1        0.0309
      9 C         141.0318  139.7148  161.5389 C.3     1  UNL1        0.0954
     10 H         139.3509  139.9495  163.5725 H       1  UNL1        0.1509
     11 C         143.5648  139.3518  158.5055 C.ar    1  UNL1        0.2362
     12 N         144.4751  140.4426  158.0242 N.ar    1  UNL1       -0.1895
     13 C         144.8229  140.1584  156.5930 C.ar    1  UNL1        0.2210
     14 N         144.1276  138.8919  156.1898 N.ar    1  UNL1       -0.0544
     15 O         143.3501  138.3935  157.3717 O.2     1  UNL1       -0.3370
     16 C         145.7102  140.9940  155.7187 C.ar    1  UNL1        0.1203
     17 C         146.5877  142.0466  156.3285 C.ar    1  UNL1        0.0224
     18 C         147.4750  142.8823  155.4543 C.ar    1  UNL1        0.0032
     19 C         147.4848  142.6652  153.9701 C.ar    1  UNL1        0.0207
     20 C         146.6073  141.6126  153.3602 C.ar    1  UNL1        0.0989
     21 N         145.7199  140.7769  154.2346 N.ar    1  UNL1       -0.2406
     22 C         139.2570  139.3767  165.6603 C.3     1  UNL1        0.0774
     23 C         138.1016  139.0330  166.5529 C.3     1  UNL1        0.0259
     24 C         139.3878  139.5254  167.1472 C.3     1  UNL1        0.0420
     25 C         140.2060  139.8955  168.3488 C.ar    1  UNL1       -0.0208
     26 C         141.7038  139.8822  168.2693 C.ar    1  UNL1       -0.0042
     27 C         142.5218  140.2524  169.4708 C.ar    1  UNL1       -0.0003
     28 C         141.8421  140.6358  170.7518 C.ar    1  UNL1       -0.0000
     29 C         140.3443  140.6491  170.8313 C.ar    1  UNL1       -0.0003
     30 C         139.5262  140.2789  169.6298 C.ar    1  UNL1       -0.0042
@<TRIPOS>BOND
     1     1     2    2
     2     2     3   am
     3    22     3    1
     4    22    23    1
     5    23    24    1
     6    24    25    1
     7    25    26   ar
     8    26    27   ar
     9    27    28   ar
    10    28    29   ar
    11    29    30   ar
    12     2     4   am
    13     4     5    1
    14     5     6    1
    15     6     7    1
    16     7    11    1
    17    11    12   ar
    18    12    13   ar
    19    13    16    1
    20    16    17   ar
    21    17    18   ar
    22    18    19   ar
    23    19    20   ar
    24    20    21   ar
    25    13    14   ar
    26    14    15   ar
    27     7     8    1
    28     8     9    1
    29    24    22    1
    30    30    25   ar
    31     9     4    1
    32    15    11   ar
    33    21    16   ar
    34     3    10    1
@<TRIPOS>MOLECULE
*****
 30 34 0 0 0
SMALL
GASTEIGER

@<TRIPOS>ATOM
      1 O         139.7840  138.2136  158.2475 O.2     1  UNL1       -0.2526
      2 C         140.8674  138.2163  159.2850 C.2     1  UNL1        0.3039
      3 N         142.2957  138.0051  158.8785 N.am    1  UNL1       -0.2901
      4 N         140.5224  138.4303  160.7290 N.am    1  UNL1       -0.2642
      5 C         139.0940  138.6415  161.1355 C.3     1  UNL1        0.0954
      6 C         138.7490  138.8555  162.5796 C.3     1  UNL1        0.0309
      7 C         139.8324  138.8582  163.6171 C.3     1  UNL1        0.0827
      8 C         141.2607  138.6470  163.2105 C.3     1  UNL1        0.0309
      9 C         141.6057  138.4330  161.7665 C.3     1  UNL1        0.0954
     10 H         143.0067  138.0069  159.5594 H       1  UNL1        0.1509
     11 C         139.4874  139.0722  165.0611 C.ar    1  UNL1        0.2362
     12 N         140.2468  139.9273  166.0317 N.ar    1  UNL1       -0.1895
     13 C         139.5512  139.8522  167.3585 C.ar    1  UNL1        0.2210
     14 N         138.3618  138.9507  167.2080 N.ar    1  UNL1       -0.0544
     15 O         138.3225  138.4686  165.7881 O.2     1  UNL1       -0.3370
     16 C         139.9711  140.5553  168.6152 C.ar    1  UNL1        0.1203
     17 C         140.2401  142.0308  168.5951 C.ar    1  UNL1        0.0224
     18 C         140.6601  142.7340  169.8517 C.ar    1  UNL1        0.0032
     19 C         140.8111  141.9615  171.1286 C.ar    1  UNL1        0.0207
     20 C         140.5422  140.4859  171.1488 C.ar    1  UNL1        0.0989
     21 N         140.1222  139.7828  169.8921 N.ar    1  UNL1       -0.2406
     22 C         142.6407  137.7911  157.4345 C.3     1  UNL1        0.0774
     23 C         142.9959  138.3475  156.0875 C.3     1  UNL1        0.0259
     24 C         142.8830  136.8642  156.2803 C.3     1  UNL1        0.0420
     25 C         142.9578  135.4726  155.7253 C.ar    1  UNL1       -0.0208
     26 C         143.7589  134.4232  156.4373 C.ar    1  UNL1       -0.0042
     27 C         143.8336  133.0317  155.8823 C.ar    1  UNL1       -0.0003
     28 C         143.1072  132.6896  154.6153 C.ar    1  UNL1       -0.0000
     29 C         142.3062  133.7390  153.9033 C.ar    1  UNL1       -0.0003
     30 C         142.2315  135.1305  154.4583 C.ar    1  UNL1       -0.0042
@<TRIPOS>BOND
     1     1     2    2
     2     2     3   am
     3    22     3    1
     4    22    23    1
     5    23    24    1
     6    24    25    1
     7    25    26   ar
     8    26    27   ar
     9    27    28   ar
    10    28    29   ar
    11    29    30   ar
    12     2     4   am
    13     4     5    1
    14     5     6    1
    15     6     7    1
    16     7    11    1
    17    11    12   ar
    18    12    13   ar
    19    13    16    1
    20    16    17   ar
    21    17    18   ar
    22    18    19   ar
    23    19    20   ar
    24    20    21   ar
    25    13    14   ar
    26    14    15   ar
    27     7     8    1
    28     8     9    1
    29    24    22    1
    30    30    25   ar
    31     9     4    1
    32    15    11   ar
    33    21    16   ar
    34     3    10    1
@<TRIPOS>MOLECULE
*****
 30 34 0 0 0
SMALL
GASTEIGER

@<TRIPOS>ATOM
      1 O         142.3972  143.0011  162.9751 O.2     1  UNL1       -0.2526
      2 C         141.5669  141.7833  162.6964 C.2     1  UNL1        0.3039
      3 N         140.3824  141.4692  163.5614 N.am    1  UNL1       -0.2901
      4 N         141.9212  140.8797  161.5527 N.am    1  UNL1       -0.2642
      5 C         143.1057  141.1939  160.6877 C.3     1  UNL1        0.0954
      6 C         143.4600  140.2903  159.5441 C.3     1  UNL1        0.0309
      7 C         142.6296  139.0725  159.2654 C.3     1  UNL1        0.0827
      8 C         141.4451  138.7584  160.1303 C.3     1  UNL1        0.0309
      9 C         141.0909  139.6620  161.2740 C.3     1  UNL1        0.0954
     10 H         139.8374  140.6699  163.3784 H       1  UNL1        0.1509
     11 C         142.9839  138.1689  158.1217 C.ar    1  UNL1        0.2362
     12 N         142.6091  136.7223  157.9921 N.ar    1  UNL1       -0.1895
     13 C         143.1687  136.2126  156.6971 C.ar    1  UNL1        0.2210
     14 N         143.8893  137.3442  156.0262 N.ar    1  UNL1       -0.0544
     15 O         143.7751  138.5533  156.9067 O.2     1  UNL1       -0.3370
     16 C         143.0317  134.8164  156.1662 C.ar    1  UNL1        0.1203
     17 C         142.8082  134.5900  154.7004 C.ar    1  UNL1        0.0224
     18 C         142.6712  133.1938  154.1693 C.ar    1  UNL1        0.0032
     19 C         142.7577  132.0240  155.1043 C.ar    1  UNL1        0.0207
     20 C         142.9813  132.2504  156.5701 C.ar    1  UNL1        0.0989
     21 N         143.1183  133.6467  157.1011 N.ar    1  UNL1       -0.2406
     22 C         140.0281  142.3728  164.7051 C.3     1  UNL1        0.0774
     23 C         139.1758  143.4633  165.2832 C.3     1  UNL1        0.0259
     24 C         140.2669  142.8473  166.1078 C.3     1  UNL1        0.0420
     25 C         141.0348  142.7656  167.3939 C.ar    1  UNL1       -0.0208
     26 C         142.4307  142.2168  167.4003 C.ar    1  UNL1       -0.0042
     27 C         143.1985  142.1351  168.6863 C.ar    1  UNL1       -0.0003
     28 C         142.5703  142.6022  169.9658 C.ar    1  UNL1       -0.0000
     29 C         141.1743  143.1511  169.9594 C.ar    1  UNL1       -0.0003
     30 C         140.4066  143.2327  168.6734 C.ar    1  UNL1       -0.0042
@<TRIPOS>BOND
     1     1     2    2
     2     2     3   am
     3    22     3    1
     4    22    23    1
     5    23    24    1
     6    24    25    1
     7    25    26   ar
     8    26    27   ar
     9    27    28   ar
    10    28    29   ar
    11    29    30   ar
    12     2     4   am
    13     4     5    1
    14     5     6    1
    15     6     7    1
    16     7    11    1
    17    11    12   ar
    18    12    13   ar
    19    13    16    1
    20    16    17   ar
    21    17    18   ar
    22    18    19   ar
    23    19    20   ar
    24    20    21   ar
    25    13    14   ar
    26    14    15   ar
    27     7     8    1
    28     8     9    1
    29    24    22    1
    30    30    25   ar
    31     9     4    1
    32    15    11   ar
    33    21    16   ar
    34     3    10    1
@<TRIPOS>MOLECULE
*****
 30 34 0 0 0
SMALL
GASTEIGER

@<TRIPOS>ATOM
      1 O         138.7396  138.0912  163.5154 O.2     1  UNL1       -0.2526
      2 C         138.5285  139.5742  163.4365 C.2     1  UNL1        0.3039
      3 N         138.3413  140.3730  164.6922 N.am    1  UNL1       -0.2901
      4 N         138.5045  140.2584  162.1018 N.am    1  UNL1       -0.2642
      5 C         138.6917  139.4595  160.8460 C.3     1  UNL1        0.0954
      6 C         138.6677  140.1436  159.5114 C.3     1  UNL1        0.0309
      7 C         138.4566  141.6267  159.4324 C.3     1  UNL1        0.0827
      8 C         138.2695  142.4255  160.6881 C.3     1  UNL1        0.0309
      9 C         138.2934  141.7413  162.0228 C.3     1  UNL1        0.0954
     10 H         138.2028  141.3464  164.6404 H       1  UNL1        0.1509
     11 C         138.4326  142.3108  158.0978 C.ar    1  UNL1        0.2362
     12 N         139.1462  143.5824  157.7458 N.ar    1  UNL1       -0.1895
     13 C         138.8455  143.9010  156.3112 C.ar    1  UNL1        0.2210
     14 N         137.9461  142.8262  155.7765 N.ar    1  UNL1       -0.0544
     15 O         137.6909  141.8435  156.8806 O.2     1  UNL1       -0.3370
     16 C         139.3548  145.0862  155.5458 C.ar    1  UNL1        0.1203
     17 C         140.5626  144.9488  154.6671 C.ar    1  UNL1        0.0224
     18 C         141.0720  146.1340  153.9016 C.ar    1  UNL1        0.0032
     19 C         140.3735  147.4566  154.0149 C.ar    1  UNL1        0.0207
     20 C         139.1656  147.5939  154.8936 C.ar    1  UNL1        0.0989
     21 N         138.6562  146.4087  155.6591 N.ar    1  UNL1       -0.2406
     22 C         138.3653  139.6889  166.0269 C.3     1  UNL1        0.0774
     23 C         137.8040  138.6714  166.9753 C.3     1  UNL1        0.0259
     24 C         138.9681  139.5215  167.3901 C.3     1  UNL1        0.0420
     25 C         139.9883  139.9157  168.4168 C.ar    1  UNL1       -0.0208
     26 C         141.4484  139.8808  168.0751 C.ar    1  UNL1       -0.0042
     27 C         142.4685  140.2750  169.1017 C.ar    1  UNL1       -0.0003
     28 C         142.0284  140.7041  170.4700 C.ar    1  UNL1       -0.0000
     29 C         140.5683  140.7390  170.8117 C.ar    1  UNL1       -0.0003
     30 C         139.5482  140.3448  169.7851 C.ar    1  UNL1       -0.0042
@<TRIPOS>BOND
     1     1     2    2
     2     2     3   am
     3    22     3    1
     4    22    23    1
     5    23    24    1
     6    24    25    1
     7    25    26   ar
     8    26    27   ar
     9    27    28   ar
    10    28    29   ar
    11    29    30   ar
    12     2     4   am
    13     4     5    1
    14     5     6    1
    15     6     7    1
    16     7    11    1
    17    11    12   ar
    18    12    13   ar
    19    13    16    1
    20    16    17   ar
    21    17    18   ar
    22    18    19   ar
    23    19    20   ar
    24    20    21   ar
    25    13    14   ar
    26    14    15   ar
    27     7     8    1
    28     8     9    1
    29    24    22    1
    30    30    25   ar
    31     9     4    1
    32    15    11   ar
    33    21    16   ar
    34     3    10    1
@<TRIPOS>MOLECULE
*****
 30 34 0 0 0
SMALL
GASTEIGER

@<TRIPOS>ATOM
      1 O         140.8001  140.9703  163.0750 O.2     1  UNL1       -0.2526
      2 C         141.5010  142.1180  162.4105 C.2     1  UNL1        0.3039
      3 N         141.3545  143.5059  162.9601 N.am    1  UNL1       -0.2901
      4 N         142.3486  141.8777  161.1965 N.am    1  UNL1       -0.2642
      5 C         142.4951  140.4896  160.6469 C.3     1  UNL1        0.0954
      6 C         143.3426  140.2493  159.4328 C.3     1  UNL1        0.0309
      7 C         144.0436  141.3971  158.7683 C.3     1  UNL1        0.0827
      8 C         143.8970  142.7850  159.3179 C.3     1  UNL1        0.0309
      9 C         143.0495  143.0253  160.5320 C.3     1  UNL1        0.0954
     10 H         141.8145  144.2592  162.5240 H       1  UNL1        0.1509
     11 C         144.8911  141.1568  157.5543 C.ar    1  UNL1        0.2362
     12 N         146.0152  142.0279  157.0771 N.ar    1  UNL1       -0.1895
     13 C         146.5822  141.4127  155.8322 C.ar    1  UNL1        0.2210
     14 N         145.8085  140.1612  155.5398 N.ar    1  UNL1       -0.0544
     15 O         144.7634  140.0031  156.6041 O.2     1  UNL1       -0.3370
     16 C         147.7225  141.9538  155.0218 C.ar    1  UNL1        0.1203
     17 C         147.4619  142.9540  153.9348 C.ar    1  UNL1        0.0224
     18 C         148.6022  143.4953  153.1244 C.ar    1  UNL1        0.0032
     19 C         150.0032  143.0363  153.4011 C.ar    1  UNL1        0.0207
     20 C         150.2638  142.0360  154.4881 C.ar    1  UNL1        0.0989
     21 N         149.1234  141.4948  155.2985 N.ar    1  UNL1       -0.2406
     22 C         140.5069  143.7462  164.1742 C.3     1  UNL1        0.0774
     23 C         139.5060  144.5826  164.9148 C.3     1  UNL1        0.0259
     24 C         140.0400  143.3261  165.5363 C.3     1  UNL1        0.0420
     25 C         140.0786  142.3581  166.6815 C.ar    1  UNL1       -0.0208
     26 C         139.6509  140.9352  166.4757 C.ar    1  UNL1       -0.0042
     27 C         139.6896  139.9673  167.6209 C.ar    1  UNL1       -0.0003
     28 C         140.1560  140.4222  168.9720 C.ar    1  UNL1       -0.0000
     29 C         140.5838  141.8451  169.1779 C.ar    1  UNL1       -0.0003
     30 C         140.5451  142.8130  168.0326 C.ar    1  UNL1       -0.0042
@<TRIPOS>BOND
     1     1     2    2
     2     2     3   am
     3    22     3    1
     4    22    23    1
     5    23    24    1
     6    24    25    1
     7    25    26   ar
     8    26    27   ar
     9    27    28   ar
    10    28    29   ar
    11    29    30   ar
    12     2     4   am
    13     4     5    1
    14     5     6    1
    15     6     7    1
    16     7    11    1
    17    11    12   ar
    18    12    13   ar
    19    13    16    1
    20    16    17   ar
    21    17    18   ar
    22    18    19   ar
    23    19    20   ar
    24    20    21   ar
    25    13    14   ar
    26    14    15   ar
    27     7     8    1
    28     8     9    1
    29    24    22    1
    30    30    25   ar
    31     9     4    1
    32    15    11   ar
    33    21    16   ar
    34     3    10    1
