@<TRIPOS>MOLECULE
*****
 37 39 0 0 0
SMALL
GASTEIGER

@<TRIPOS>ATOM
      1 C         140.4972  143.0126  166.1919 C.ar    1  UNL1        0.1386
      2 C         139.5811  144.0128  165.5512 C.ar    1  UNL1        0.0383
      3 C         139.9102  144.5730  164.1992 C.ar    1  UNL1        0.0233
      4 C         141.1554  144.1330  163.4879 C.ar    1  UNL1        0.1255
      5 C         142.0715  143.1329  164.1286 C.ar    1  UNL1        0.0233
      6 C         141.7424  142.5726  165.4806 C.ar    1  UNL1        0.0383
      7 S         141.4845  144.6932  162.1360 S.O2    1  UNL1        0.0768
      8 O         142.2609  143.4517  161.8105 O.2     1  UNL1       -0.1498
      9 O         140.7082  145.9347  162.4614 O.2     1  UNL1       -0.1498
     10 N         141.8137  145.2533  160.7839 N.am    1  UNL1       -0.1690
     11 C         140.8272  145.1303  159.6607 C.2     1  UNL1        0.3231
     12 O         139.5115  144.4472  159.8895 O.2     1  UNL1       -0.2509
     13 N         141.1563  145.6904  158.3087 N.am    1  UNL1       -0.2671
     14 H         142.6772  145.7017  160.6337 H       1  UNL1        0.1781
     15 H         142.0198  146.1388  158.1585 H       1  UNL1        0.1565
     16 C         140.1697  145.5674  157.1855 C.ar    1  UNL1        0.0516
     17 C         139.7944  144.2128  156.6619 C.ar    1  UNL1        0.0147
     18 C         138.8078  144.0898  155.5387 C.ar    1  UNL1        0.0013
     19 C         138.1966  145.3214  154.9391 C.ar    1  UNL1        0.0001
     20 C         138.5720  146.6760  155.4627 C.ar    1  UNL1        0.0013
     21 C         139.5585  146.7990  156.5859 C.ar    1  UNL1        0.0147
     22 O         140.1681  142.4524  167.5439 O.3     1  UNL1       -0.4755
     23 C         140.9695  142.8661  168.7425 C.3     1  UNL1        0.2054
     24 C         142.3987  142.4305  168.8759 C.3     1  UNL1        0.0488
     25 C         142.7207  140.9973  169.1794 C.3     1  UNL1        0.0212
     26 C         141.7786  139.9105  168.7534 C.3     1  UNL1        0.0722
     27 C         141.8924  138.3618  164.5299 C.3     1  UNL1        0.1018
     28 C         140.5808  138.7256  165.1602 C.3     1  UNL1        0.0285
     29 C         140.5429  139.2418  166.5681 C.3     1  UNL1        0.0727
     30 N         141.8166  139.3943  167.3456 N.3     1  UNL1       -0.2727
     31 C         143.1281  139.0305  166.7152 C.3     1  UNL1        0.0727
     32 C         143.1660  138.5142  165.3074 C.3     1  UNL1        0.0285
     33 C         141.9303  137.8455  163.1220 C.2     1  UNL1        0.3165
     34 O         143.1844  137.9747  162.3093 O.2     1  UNL1       -0.2501
     35 O         140.7142  137.2001  162.5268 O.3     1  UNL1       -0.4485
     36 C         138.3330  138.1357  162.0744 C.3     1  UNL1        0.0513
     37 C         139.7748  138.0073  161.6807 C.3     1  UNL1        0.2086
@<TRIPOS>BOND
     1    36    37    1
     2    37    35    1
     3    35    33    1
     4    33    34    2
     5    33    27    1
     6    27    28    1
     7    28    29    1
     8    29    30    1
     9    30    26    1
    10    26    25    1
    11    25    24    1
    12    24    23    1
    13    23    22    1
    14    22     1    1
    15     1     2   ar
    16     2     3   ar
    17     3     4   ar
    18     4     7    1
    19     7     8    2
    20     7     9    2
    21     7    10    1
    22    10    11   am
    23    11    12    2
    24    11    13   am
    25    13    16    1
    26    16    17   ar
    27    17    18   ar
    28    18    19   ar
    29    19    20   ar
    30    20    21   ar
    31     4     5   ar
    32     5     6   ar
    33    30    31    1
    34    31    32    1
    35    32    27    1
    36     6     1   ar
    37    21    16   ar
    38    10    14    1
    39    13    15    1
@<TRIPOS>MOLECULE
*****
 37 39 0 0 0
SMALL
GASTEIGER

@<TRIPOS>ATOM
      1 C         142.2444  140.2334  164.2772 C.ar    1  UNL1        0.1386
      2 C         141.4466  140.2056  163.0072 C.ar    1  UNL1        0.0383
      3 C         141.4240  141.4068  162.1092 C.ar    1  UNL1        0.0233
      4 C         142.1993  142.6359  162.4811 C.ar    1  UNL1        0.1255
      5 C         142.9971  142.6637  163.7510 C.ar    1  UNL1        0.0233
      6 C         143.0197  141.4625  164.6490 C.ar    1  UNL1        0.0383
      7 S         142.1768  143.8371  161.5831 S.O2    1  UNL1        0.0768
      8 O         140.7695  144.1308  162.0111 O.2     1  UNL1       -0.1498
      9 O         143.5841  143.5435  161.1550 O.2     1  UNL1       -0.1498
     10 N         142.1542  145.0385  160.6850 N.am    1  UNL1       -0.1690
     11 C         141.6833  144.9061  159.2670 C.2     1  UNL1        0.3231
     12 O         141.2350  143.5723  158.7470 O.2     1  UNL1       -0.2509
     13 N         141.6607  146.1073  158.3690 N.am    1  UNL1       -0.2671
     14 H         142.4484  145.9138  161.0263 H       1  UNL1        0.1781
     15 H         141.9549  146.9826  158.7103 H       1  UNL1        0.1565
     16 C         141.1899  145.9749  156.9510 C.ar    1  UNL1        0.0516
     17 C         142.0873  145.3625  155.9168 C.ar    1  UNL1        0.0147
     18 C         141.6165  145.2301  154.4988 C.ar    1  UNL1        0.0013
     19 C         140.2481  145.7100  154.1149 C.ar    1  UNL1        0.0001
     20 C         139.3507  146.3223  155.1491 C.ar    1  UNL1        0.0013
     21 C         139.8215  146.4548  156.5672 C.ar    1  UNL1        0.0147
     22 O         142.2670  139.0321  165.1752 O.3     1  UNL1       -0.4755
     23 C         143.2280  138.9735  166.3253 C.3     1  UNL1        0.2054
     24 C         142.7507  139.2649  167.7172 C.3     1  UNL1        0.0488
     25 C         142.3079  140.6504  168.0835 C.3     1  UNL1        0.0212
     26 C         140.8457  140.9659  168.1939 C.3     1  UNL1        0.0722
     27 C         138.5084  142.1146  164.5240 C.3     1  UNL1        0.1018
     28 C         138.3764  140.7341  165.0957 C.3     1  UNL1        0.0285
     29 C         139.1555  140.3512  166.3189 C.3     1  UNL1        0.0727
     30 N         140.0666  141.3488  166.9706 N.3     1  UNL1       -0.2727
     31 C         140.1986  142.7293  166.3990 C.3     1  UNL1        0.0727
     32 C         139.4195  143.1122  165.1757 C.3     1  UNL1        0.0285
     33 C         137.7293  142.4975  163.3008 C.2     1  UNL1        0.3165
     34 O         137.5756  143.9432  162.9315 O.2     1  UNL1       -0.2501
     35 O         137.1040  141.4348  162.4467 O.3     1  UNL1       -0.4485
     36 C         137.3152  139.7981  160.4400 C.3     1  UNL1        0.0513
     37 C         137.9558  140.6211  161.5182 C.3     1  UNL1        0.2086
@<TRIPOS>BOND
     1    36    37    1
     2    37    35    1
     3    35    33    1
     4    33    34    2
     5    33    27    1
     6    27    28    1
     7    28    29    1
     8    29    30    1
     9    30    26    1
    10    26    25    1
    11    25    24    1
    12    24    23    1
    13    23    22    1
    14    22     1    1
    15     1     2   ar
    16     2     3   ar
    17     3     4   ar
    18     4     7    1
    19     7     8    2
    20     7     9    2
    21     7    10    1
    22    10    11   am
    23    11    12    2
    24    11    13   am
    25    13    16    1
    26    16    17   ar
    27    17    18   ar
    28    18    19   ar
    29    19    20   ar
    30    20    21   ar
    31     4     5   ar
    32     5     6   ar
    33    30    31    1
    34    31    32    1
    35    32    27    1
    36     6     1   ar
    37    21    16   ar
    38    10    14    1
    39    13    15    1
@<TRIPOS>MOLECULE
*****
 37 39 0 0 0
SMALL
GASTEIGER

@<TRIPOS>ATOM
      1 C         138.8805  139.1693  160.0943 C.ar    1  UNL1        0.1386
      2 C         138.1388  140.2728  160.7888 C.ar    1  UNL1        0.0383
      3 C         137.9727  140.2426  162.2793 C.ar    1  UNL1        0.0233
      4 C         138.5482  139.1089  163.0752 C.ar    1  UNL1        0.1255
      5 C         139.2899  138.0055  162.3808 C.ar    1  UNL1        0.0233
      6 C         139.4561  138.0357  160.8903 C.ar    1  UNL1        0.0383
      7 S         138.3821  139.0787  164.5657 S.O2    1  UNL1        0.0768
      8 O         137.7841  140.4538  164.5269 O.2     1  UNL1       -0.1498
      9 O         138.9801  137.7037  164.6044 O.2     1  UNL1       -0.1498
     10 N         138.2160  139.0486  166.0562 N.am    1  UNL1       -0.1690
     11 C         139.2251  139.7237  166.9371 C.2     1  UNL1        0.3231
     12 O         140.4003  140.4290  166.3275 O.2     1  UNL1       -0.2509
     13 N         139.0590  139.6936  168.4275 N.am    1  UNL1       -0.2671
     14 H         137.4447  138.5857  166.4563 H       1  UNL1        0.1781
     15 H         138.2877  139.2307  168.8276 H       1  UNL1        0.1565
     16 C         140.0680  140.3687  169.3084 C.ar    1  UNL1        0.0516
     17 C         139.8040  141.7504  169.8290 C.ar    1  UNL1        0.0147
     18 C         140.8131  142.4255  170.7099 C.ar    1  UNL1        0.0013
     19 C         142.0862  141.7189  171.0703 C.ar    1  UNL1        0.0001
     20 C         142.3502  140.3372  170.5497 C.ar    1  UNL1        0.0013
     21 C         141.3411  139.6621  169.6688 C.ar    1  UNL1        0.0147
     22 O         139.0466  139.1995  158.6038 O.3     1  UNL1       -0.4755
     23 C         139.8562  138.1394  157.9178 C.3     1  UNL1        0.2054
     24 C         141.3070  138.3784  157.6208 C.3     1  UNL1        0.0488
     25 C         142.3295  138.2305  158.7083 C.3     1  UNL1        0.0212
     26 C         143.0577  139.4370  159.2222 C.3     1  UNL1        0.0722
     27 C         140.8089  142.6547  161.4220 C.3     1  UNL1        0.1018
     28 C         140.8838  142.6822  159.9241 C.3     1  UNL1        0.0285
     29 C         141.6334  141.6096  159.1909 C.3     1  UNL1        0.0727
     30 N         142.3081  140.5096  159.9555 N.3     1  UNL1       -0.2727
     31 C         142.2331  140.4821  161.4533 C.3     1  UNL1        0.0727
     32 C         141.4835  141.5547  162.1865 C.3     1  UNL1        0.0285
     33 C         140.0593  143.7273  162.1552 C.2     1  UNL1        0.3165
     34 O         139.1209  144.6297  161.4102 O.2     1  UNL1       -0.2501
     35 O         140.2480  143.8975  163.6335 O.3     1  UNL1       -0.4485
     36 C         137.9148  144.1522  164.7476 C.3     1  UNL1        0.0513
     37 C         139.2688  144.7120  164.4258 C.3     1  UNL1        0.2086
@<TRIPOS>BOND
     1    36    37    1
     2    37    35    1
     3    35    33    1
     4    33    34    2
     5    33    27    1
     6    27    28    1
     7    28    29    1
     8    29    30    1
     9    30    26    1
    10    26    25    1
    11    25    24    1
    12    24    23    1
    13    23    22    1
    14    22     1    1
    15     1     2   ar
    16     2     3   ar
    17     3     4   ar
    18     4     7    1
    19     7     8    2
    20     7     9    2
    21     7    10    1
    22    10    11   am
    23    11    12    2
    24    11    13   am
    25    13    16    1
    26    16    17   ar
    27    17    18   ar
    28    18    19   ar
    29    19    20   ar
    30    20    21   ar
    31     4     5   ar
    32     5     6   ar
    33    30    31    1
    34    31    32    1
    35    32    27    1
    36     6     1   ar
    37    21    16   ar
    38    10    14    1
    39    13    15    1
@<TRIPOS>MOLECULE
*****
 37 39 0 0 0
SMALL
GASTEIGER

@<TRIPOS>ATOM
      1 C         139.6276  139.5888  166.3263 C.ar    1  UNL1        0.1386
      2 C         140.7227  138.8870  165.5791 C.ar    1  UNL1        0.0383
      3 C         140.5865  138.6397  164.1060 C.ar    1  UNL1        0.0233
      4 C         139.3552  139.0942  163.3799 C.ar    1  UNL1        0.1255
      5 C         138.2601  139.7960  164.1270 C.ar    1  UNL1        0.0233
      6 C         138.3963  140.0434  165.6002 C.ar    1  UNL1        0.0383
      7 S         139.2189  138.8469  161.9067 S.O2    1  UNL1        0.0768
      8 O         140.6933  139.0623  161.7342 O.2     1  UNL1       -0.1498
      9 O         137.7445  138.6316  162.0792 O.2     1  UNL1       -0.1498
     10 N         139.0827  138.5997  160.4335 N.am    1  UNL1       -0.1690
     11 C         138.8009  139.7428  159.5041 C.2     1  UNL1        0.3231
     12 O         138.6552  141.1332  160.0479 O.2     1  UNL1       -0.2509
     13 N         138.6647  139.4955  158.0309 N.am    1  UNL1       -0.2671
     14 H         139.1783  137.6871  160.0766 H       1  UNL1        0.1781
     15 H         138.7603  138.5830  157.6740 H       1  UNL1        0.1565
     16 C         138.3828  140.6387  157.1014 C.ar    1  UNL1        0.0516
     17 C         136.9662  141.0343  156.8072 C.ar    1  UNL1        0.0147
     18 C         136.6844  142.1774  155.8777 C.ar    1  UNL1        0.0013
     19 C         137.8191  142.9249  155.2426 C.ar    1  UNL1        0.0001
     20 C         139.2358  142.5293  155.5368 C.ar    1  UNL1        0.0013
     21 C         139.5176  141.3862  156.4663 C.ar    1  UNL1        0.0147
     22 O         139.7639  139.8361  167.7995 O.3     1  UNL1       -0.4755
     23 C         141.1253  139.9098  168.4248 C.3     1  UNL1        0.2054
     24 C         141.5627  141.1628  169.1240 C.3     1  UNL1        0.0488
     25 C         142.1864  142.2798  168.3409 C.3     1  UNL1        0.0212
     26 C         142.4673  142.1045  166.8780 C.3     1  UNL1        0.0722
     27 C         139.4055  143.3673  163.8316 C.3     1  UNL1        0.1018
     28 C         139.1922  143.6793  165.2832 C.3     1  UNL1        0.0285
     29 C         140.2128  143.2584  166.2986 C.3     1  UNL1        0.0727
     30 N         141.4467  142.5254  165.8625 N.3     1  UNL1       -0.2727
     31 C         141.6600  142.2134  164.4109 C.3     1  UNL1        0.0727
     32 C         140.6394  142.6344  163.3955 C.3     1  UNL1        0.0285
     33 C         138.3848  143.7882  162.8161 C.2     1  UNL1        0.3165
     34 O         137.3670  142.8030  162.3229 O.2     1  UNL1       -0.2501
     35 O         138.3821  145.1943  162.2939 O.3     1  UNL1       -0.4485
     36 C         140.3815  145.5393  160.6711 C.3     1  UNL1        0.0513
     37 C         139.6770  145.8705  161.9533 C.3     1  UNL1        0.2086
@<TRIPOS>BOND
     1    36    37    1
     2    37    35    1
     3    35    33    1
     4    33    34    2
     5    33    27    1
     6    27    28    1
     7    28    29    1
     8    29    30    1
     9    30    26    1
    10    26    25    1
    11    25    24    1
    12    24    23    1
    13    23    22    1
    14    22     1    1
    15     1     2   ar
    16     2     3   ar
    17     3     4   ar
    18     4     7    1
    19     7     8    2
    20     7     9    2
    21     7    10    1
    22    10    11   am
    23    11    12    2
    24    11    13   am
    25    13    16    1
    26    16    17   ar
    27    17    18   ar
    28    18    19   ar
    29    19    20   ar
    30    20    21   ar
    31     4     5   ar
    32     5     6   ar
    33    30    31    1
    34    31    32    1
    35    32    27    1
    36     6     1   ar
    37    21    16   ar
    38    10    14    1
    39    13    15    1
@<TRIPOS>MOLECULE
*****
 37 39 0 0 0
SMALL
GASTEIGER

@<TRIPOS>ATOM
      1 C         142.8553  138.4419  159.9260 C.ar    1  UNL1        0.1386
      2 C         144.0932  138.9432  160.6091 C.ar    1  UNL1        0.0383
      3 C         144.1490  139.0089  162.1066 C.ar    1  UNL1        0.0233
      4 C         142.9671  138.5734  162.9210 C.ar    1  UNL1        0.1255
      5 C         141.7293  138.0722  162.2380 C.ar    1  UNL1        0.0233
      6 C         141.6734  138.0064  160.7404 C.ar    1  UNL1        0.0383
      7 S         143.0229  138.6392  164.4185 S.O2    1  UNL1        0.0768
      8 O         141.8326  137.7304  164.5028 O.2     1  UNL1       -0.1498
      9 O         144.2132  139.5480  164.3342 O.2     1  UNL1       -0.1498
     10 N         143.0787  138.7049  165.9161 N.am    1  UNL1       -0.1690
     11 C         142.2945  139.7516  166.6506 C.2     1  UNL1        0.3231
     12 O         141.4546  140.7326  165.8875 O.2     1  UNL1       -0.2509
     13 N         142.3503  139.8173  168.1481 N.am    1  UNL1       -0.2671
     14 H         143.6300  138.0610  166.4169 H       1  UNL1        0.1781
     15 H         142.9016  139.1735  168.6489 H       1  UNL1        0.1565
     16 C         141.5662  140.8640  168.8826 C.ar    1  UNL1        0.0516
     17 C         140.2016  140.5424  169.4159 C.ar    1  UNL1        0.0147
     18 C         139.4175  141.5891  170.1504 C.ar    1  UNL1        0.0013
     19 C         139.9979  142.9575  170.3516 C.ar    1  UNL1        0.0001
     20 C         141.3624  143.2792  169.8183 C.ar    1  UNL1        0.0013
     21 C         142.1466  142.2325  169.0838 C.ar    1  UNL1        0.0147
     22 O         142.7995  138.3762  158.4285 O.3     1  UNL1       -0.4755
     23 C         141.5915  137.8045  157.7474 C.3     1  UNL1        0.2054
     24 C         140.4030  138.6770  157.4712 C.3     1  UNL1        0.0488
     25 C         140.5983  140.1250  157.1321 C.3     1  UNL1        0.0212
     26 C         140.2833  141.1824  158.1483 C.3     1  UNL1        0.0722
     27 C         143.4653  142.5697  161.0120 C.3     1  UNL1        0.1018
     28 C         143.7262  142.5873  159.5350 C.3     1  UNL1        0.0285
     29 C         142.6655  142.1249  158.5804 C.3     1  UNL1        0.0727
     30 N         141.3440  141.6448  159.1029 N.3     1  UNL1       -0.2727
     31 C         141.0831  141.6272  160.5799 C.3     1  UNL1        0.0727
     32 C         142.1437  142.0896  161.5344 C.3     1  UNL1        0.0285
     33 C         144.5259  143.0321  161.9665 C.2     1  UNL1        0.3165
     34 O         145.5677  142.0693  162.4540 O.2     1  UNL1       -0.2501
     35 O         144.5448  144.4574  162.4337 O.3     1  UNL1       -0.4485
     36 C         142.3394  145.1829  163.5999 C.3     1  UNL1        0.0513
     37 C         143.8001  144.8496  163.6752 C.3     1  UNL1        0.2086
@<TRIPOS>BOND
     1    36    37    1
     2    37    35    1
     3    35    33    1
     4    33    34    2
     5    33    27    1
     6    27    28    1
     7    28    29    1
     8    29    30    1
     9    30    26    1
    10    26    25    1
    11    25    24    1
    12    24    23    1
    13    23    22    1
    14    22     1    1
    15     1     2   ar
    16     2     3   ar
    17     3     4   ar
    18     4     7    1
    19     7     8    2
    20     7     9    2
    21     7    10    1
    22    10    11   am
    23    11    12    2
    24    11    13   am
    25    13    16    1
    26    16    17   ar
    27    17    18   ar
    28    18    19   ar
    29    19    20   ar
    30    20    21   ar
    31     4     5   ar
    32     5     6   ar
    33    30    31    1
    34    31    32    1
    35    32    27    1
    36     6     1   ar
    37    21    16   ar
    38    10    14    1
    39    13    15    1
@<TRIPOS>MOLECULE
*****
 37 39 0 0 0
SMALL
GASTEIGER

@<TRIPOS>ATOM
      1 C         138.5258  139.5134  159.8670 C.ar    1  UNL1        0.1386
      2 C         139.1728  138.3736  160.5968 C.ar    1  UNL1        0.0383
      3 C         139.2072  138.3662  162.0963 C.ar    1  UNL1        0.0233
      4 C         138.5945  139.4984  162.8662 C.ar    1  UNL1        0.1255
      5 C         137.9475  140.6381  162.1365 C.ar    1  UNL1        0.0233
      6 C         137.9131  140.6456  160.6369 C.ar    1  UNL1        0.0383
      7 S         138.6288  139.4909  164.3658 S.O2    1  UNL1        0.0768
      8 O         139.4017  138.2056  164.3417 O.2     1  UNL1       -0.1498
      9 O         137.8559  140.7762  164.3899 O.2     1  UNL1       -0.1498
     10 N         138.6632  139.4834  165.8654 N.am    1  UNL1       -0.1690
     11 C         139.7074  140.2748  166.5956 C.2     1  UNL1        0.3231
     12 O         140.7173  141.0738  165.8262 O.2     1  UNL1       -0.2509
     13 N         139.7418  140.2674  168.0952 N.am    1  UNL1       -0.2671
     14 H         138.0004  138.9591  166.3704 H       1  UNL1        0.1781
     15 H         139.0790  139.7430  168.6001 H       1  UNL1        0.1565
     16 C         140.7861  141.0588  168.8254 C.ar    1  UNL1        0.0516
     17 C         142.1061  140.4299  169.1599 C.ar    1  UNL1        0.0147
     18 C         143.1503  141.2213  169.8902 C.ar    1  UNL1        0.0013
     19 C         142.8745  142.6416  170.2858 C.ar    1  UNL1        0.0001
     20 C         141.5545  143.2705  169.9513 C.ar    1  UNL1        0.0013
     21 C         140.5103  142.4791  169.2211 C.ar    1  UNL1        0.0147
     22 O         138.4915  139.5208  158.3675 O.3     1  UNL1       -0.4755
     23 C         137.9798  140.7257  157.6349 C.3     1  UNL1        0.2054
     24 C         138.9443  141.6814  156.9974 C.3     1  UNL1        0.0488
     25 C         140.4023  141.6185  157.3443 C.3     1  UNL1        0.0212
     26 C         140.9289  142.3942  158.5152 C.3     1  UNL1        0.0722
     27 C         142.4073  140.2246  162.1700 C.3     1  UNL1        0.1018
     28 C         142.6445  139.6455  160.8068 C.3     1  UNL1        0.0285
     29 C         142.1517  140.3687  159.5885 C.3     1  UNL1        0.0727
     30 N         141.4217  141.6710  159.7334 N.3     1  UNL1       -0.2727
     31 C         141.1844  142.2501  161.0966 C.3     1  UNL1        0.0727
     32 C         141.6772  141.5269  162.3149 C.3     1  UNL1        0.0285
     33 C         142.9001  139.5015  163.3882 C.2     1  UNL1        0.3165
     34 O         142.5088  138.0724  163.6216 O.2     1  UNL1       -0.2501
     35 O         143.7841  140.2074  164.3731 O.3     1  UNL1       -0.4485
     36 C         145.7398  141.7106  163.5570 C.3     1  UNL1        0.0513
     37 C         145.2421  140.3931  164.0735 C.3     1  UNL1        0.2086
@<TRIPOS>BOND
     1    36    37    1
     2    37    35    1
     3    35    33    1
     4    33    34    2
     5    33    27    1
     6    27    28    1
     7    28    29    1
     8    29    30    1
     9    30    26    1
    10    26    25    1
    11    25    24    1
    12    24    23    1
    13    23    22    1
    14    22     1    1
    15     1     2   ar
    16     2     3   ar
    17     3     4   ar
    18     4     7    1
    19     7     8    2
    20     7     9    2
    21     7    10    1
    22    10    11   am
    23    11    12    2
    24    11    13   am
    25    13    16    1
    26    16    17   ar
    27    17    18   ar
    28    18    19   ar
    29    19    20   ar
    30    20    21   ar
    31     4     5   ar
    32     5     6   ar
    33    30    31    1
    34    31    32    1
    35    32    27    1
    36     6     1   ar
    37    21    16   ar
    38    10    14    1
    39    13    15    1
@<TRIPOS>MOLECULE
*****
 37 39 0 0 0
SMALL
GASTEIGER

@<TRIPOS>ATOM
      1 C         143.3116  138.8110  159.8746 C.ar    1  UNL1        0.1386
      2 C         144.0413  139.9198  160.5734 C.ar    1  UNL1        0.0383
      3 C         144.0746  139.9678  162.0723 C.ar    1  UNL1        0.0233
      4 C         143.3781  138.9073  162.8723 C.ar    1  UNL1        0.1255
      5 C         142.6484  137.7986  162.1736 C.ar    1  UNL1        0.0233
      6 C         142.6151  137.7505  160.6747 C.ar    1  UNL1        0.0383
      7 S         143.4114  138.9553  164.3712 S.O2    1  UNL1        0.0768
      8 O         142.2724  137.9810  164.4277 O.2     1  UNL1       -0.1498
      9 O         144.5504  139.9297  164.3146 O.2     1  UNL1       -0.1498
     10 N         143.4446  139.0034  165.8701 N.am    1  UNL1       -0.1690
     11 C         142.5714  139.9739  166.6089 C.2     1  UNL1        0.3231
     12 O         141.6650  140.8963  165.8487 O.2     1  UNL1       -0.2509
     13 N         142.6046  140.0219  168.1077 N.am    1  UNL1       -0.2671
     14 H         144.0395  138.3980  166.3689 H       1  UNL1        0.1781
     15 H         143.1995  139.4166  168.6066 H       1  UNL1        0.1565
     16 C         141.7315  140.9924  168.8465 C.ar    1  UNL1        0.0516
     17 C         140.3319  140.6058  169.2230 C.ar    1  UNL1        0.0147
     18 C         139.4588  141.5762  169.9618 C.ar    1  UNL1        0.0013
     19 C         139.9851  142.9333  170.3241 C.ar    1  UNL1        0.0001
     20 C         141.3846  143.3199  169.9475 C.ar    1  UNL1        0.0013
     21 C         142.2578  142.3495  169.2087 C.ar    1  UNL1        0.0147
     22 O         143.2783  138.7630  158.3758 O.3     1  UNL1       -0.4755
     23 C         143.4523  140.0231  157.5809 C.3     1  UNL1        0.2054
     24 C         142.2726  140.9104  157.3140 C.3     1  UNL1        0.0488
     25 C         142.1808  142.2546  157.9733 C.3     1  UNL1        0.0212
     26 C         140.9770  142.6056  158.7964 C.3     1  UNL1        0.0722
     27 C         139.6354  139.8646  162.1035 C.3     1  UNL1        0.1018
     28 C         139.2423  139.5767  160.6849 C.3     1  UNL1        0.0285
     29 C         139.6895  140.4904  159.5825 C.3     1  UNL1        0.0727
     30 N         140.5298  141.6919  159.8988 N.3     1  UNL1       -0.2727
     31 C         140.9229  141.9798  161.3174 C.3     1  UNL1        0.0727
     32 C         140.4757  141.0662  162.4198 C.3     1  UNL1        0.0285
     33 C         139.1882  138.9509  163.2059 C.2     1  UNL1        0.3165
     34 O         139.1665  137.4671  162.9878 O.2     1  UNL1       -0.2501
     35 O         138.7627  139.5211  164.5264 O.3     1  UNL1       -0.4485
     36 C         137.8271  138.5377  166.7417 C.3     1  UNL1        0.0513
     37 C         138.9663  138.7311  165.7851 C.3     1  UNL1        0.2086
@<TRIPOS>BOND
     1    36    37    1
     2    37    35    1
     3    35    33    1
     4    33    34    2
     5    33    27    1
     6    27    28    1
     7    28    29    1
     8    29    30    1
     9    30    26    1
    10    26    25    1
    11    25    24    1
    12    24    23    1
    13    23    22    1
    14    22     1    1
    15     1     2   ar
    16     2     3   ar
    17     3     4   ar
    18     4     7    1
    19     7     8    2
    20     7     9    2
    21     7    10    1
    22    10    11   am
    23    11    12    2
    24    11    13   am
    25    13    16    1
    26    16    17   ar
    27    17    18   ar
    28    18    19   ar
    29    19    20   ar
    30    20    21   ar
    31     4     5   ar
    32     5     6   ar
    33    30    31    1
    34    31    32    1
    35    32    27    1
    36     6     1   ar
    37    21    16   ar
    38    10    14    1
    39    13    15    1
@<TRIPOS>MOLECULE
*****
 37 39 0 0 0
SMALL
GASTEIGER

@<TRIPOS>ATOM
      1 C         143.7799  139.3679  159.7776 C.ar    1  UNL1        0.1386
      2 C         144.0983  140.5807  160.6010 C.ar    1  UNL1        0.0383
      3 C         144.0435  140.5063  162.0981 C.ar    1  UNL1        0.0233
      4 C         143.6703  139.2192  162.7719 C.ar    1  UNL1        0.1255
      5 C         143.3520  138.0064  161.9486 C.ar    1  UNL1        0.0233
      6 C         143.4068  138.0808  160.4514 C.ar    1  UNL1        0.0383
      7 S         143.6155  139.1448  164.2690 S.O2    1  UNL1        0.0768
      8 O         144.8671  139.9669  164.3557 O.2     1  UNL1       -0.1498
      9 O         142.3639  138.3226  164.1823 O.2     1  UNL1       -0.1498
     10 N         143.5607  139.0704  165.7662 N.am    1  UNL1       -0.1690
     11 C         142.7155  140.0423  166.5350 C.2     1  UNL1        0.3231
     12 O         141.9251  141.0886  165.8065 O.2     1  UNL1       -0.2509
     13 N         142.6607  139.9680  168.0321 N.am    1  UNL1       -0.2671
     14 H         144.0795  138.3837  166.2443 H       1  UNL1        0.1781
     15 H         143.1795  139.2813  168.5102 H       1  UNL1        0.1565
     16 C         141.8155  140.9399  168.8009 C.ar    1  UNL1        0.0516
     17 C         140.4368  140.5485  169.2433 C.ar    1  UNL1        0.0147
     18 C         139.5916  141.5205  170.0121 C.ar    1  UNL1        0.0013
     19 C         140.1251  142.8838  170.3384 C.ar    1  UNL1        0.0001
     20 C         141.5039  143.2752  169.8959 C.ar    1  UNL1        0.0013
     21 C         142.3491  142.3033  169.1272 C.ar    1  UNL1        0.0147
     22 O         143.8348  139.4423  158.2805 O.3     1  UNL1       -0.4755
     23 C         142.6507  139.9478  157.5108 C.3     1  UNL1        0.2054
     24 C         141.4360  139.0825  157.3495 C.3     1  UNL1        0.0488
     25 C         140.1924  139.3822  158.1329 C.3     1  UNL1        0.0212
     26 C         139.8841  138.6036  159.3774 C.3     1  UNL1        0.0722
     27 C         138.7490  140.7627  163.1589 C.3     1  UNL1        0.1018
     28 C         137.8364  139.7175  162.5892 C.3     1  UNL1        0.0285
     29 C         138.2147  138.9978  161.3287 C.3     1  UNL1        0.0727
     30 N         139.5057  139.3233  160.6379 N.3     1  UNL1       -0.2727
     31 C         140.4184  140.3685  161.2075 C.3     1  UNL1        0.0727
     32 C         140.0401  141.0882  162.4680 C.3     1  UNL1        0.0285
     33 C         138.3707  141.4824  164.4194 C.2     1  UNL1        0.3165
     34 O         138.8517  140.9745  165.7463 O.2     1  UNL1       -0.2501
     35 O         137.5114  142.7100  164.3531 O.3     1  UNL1       -0.4485
     36 C         138.5853  144.8187  165.4256 C.3     1  UNL1        0.0513
     37 C         138.1447  144.0619  164.2077 C.3     1  UNL1        0.2086
@<TRIPOS>BOND
     1    36    37    1
     2    37    35    1
     3    35    33    1
     4    33    34    2
     5    33    27    1
     6    27    28    1
     7    28    29    1
     8    29    30    1
     9    30    26    1
    10    26    25    1
    11    25    24    1
    12    24    23    1
    13    23    22    1
    14    22     1    1
    15     1     2   ar
    16     2     3   ar
    17     3     4   ar
    18     4     7    1
    19     7     8    2
    20     7     9    2
    21     7    10    1
    22    10    11   am
    23    11    12    2
    24    11    13   am
    25    13    16    1
    26    16    17   ar
    27    17    18   ar
    28    18    19   ar
    29    19    20   ar
    30    20    21   ar
    31     4     5   ar
    32     5     6   ar
    33    30    31    1
    34    31    32    1
    35    32    27    1
    36     6     1   ar
    37    21    16   ar
    38    10    14    1
    39    13    15    1
@<TRIPOS>MOLECULE
*****
 37 39 0 0 0
SMALL
GASTEIGER

@<TRIPOS>ATOM
      1 C         139.1358  139.5135  160.0979 C.ar    1  UNL1        0.1386
      2 C         138.7626  140.7157  160.9137 C.ar    1  UNL1        0.0383
      3 C         138.5609  140.5843  162.3942 C.ar    1  UNL1        0.0233
      4 C         138.7325  139.2507  163.0591 C.ar    1  UNL1        0.1255
      5 C         139.1057  138.0485  162.2434 C.ar    1  UNL1        0.0233
      6 C         139.3074  138.1799  160.7628 C.ar    1  UNL1        0.0383
      7 S         138.5308  139.1192  164.5396 S.O2    1  UNL1        0.0768
      8 O         139.2741  137.8165  164.5252 O.2     1  UNL1       -0.1498
      9 O         137.7875  140.4220  164.5540 O.2     1  UNL1       -0.1498
     10 N         138.3291  138.9877  166.0202 N.am    1  UNL1       -0.1690
     11 C         139.2555  139.6896  166.9685 C.2     1  UNL1        0.3231
     12 O         140.3835  140.5229  166.4363 O.2     1  UNL1       -0.2509
     13 N         139.0538  139.5581  168.4491 N.am    1  UNL1       -0.2671
     14 H         137.5888  138.4408  166.3695 H       1  UNL1        0.1781
     15 H         138.3135  139.0112  168.7984 H       1  UNL1        0.1565
     16 C         139.9802  140.2599  169.3974 C.ar    1  UNL1        0.0516
     17 C         139.5916  141.5854  169.9823 C.ar    1  UNL1        0.0147
     18 C         140.5179  142.2872  170.9306 C.ar    1  UNL1        0.0013
     19 C         141.8328  141.6636  171.2940 C.ar    1  UNL1        0.0001
     20 C         142.2214  140.3382  170.7091 C.ar    1  UNL1        0.0013
     21 C         141.2951  139.6363  169.7608 C.ar    1  UNL1        0.0147
     22 O         139.3375  139.6450  158.6174 O.3     1  UNL1       -0.4755
     23 C         140.7080  139.9084  158.0676 C.3     1  UNL1        0.2054
     24 C         141.8840  139.9960  158.9948 C.3     1  UNL1        0.0488
     25 C         142.7660  138.8006  159.2025 C.3     1  UNL1        0.0212
     26 C         143.6695  138.7338  160.3979 C.3     1  UNL1        0.0722
     27 C         143.2671  141.7699  163.6949 C.3     1  UNL1        0.1018
     28 C         142.3322  140.5985  163.6359 C.3     1  UNL1        0.0285
     29 C         142.4663  139.5864  162.5369 C.3     1  UNL1        0.0727
     30 N         143.5353  139.7458  161.4969 N.3     1  UNL1       -0.2727
     31 C         144.4703  140.9173  161.5559 C.3     1  UNL1        0.0727
     32 C         144.3362  141.9293  162.6549 C.3     1  UNL1        0.0285
     33 C         143.1330  142.7820  164.7938 C.2     1  UNL1        0.3165
     34 O         144.3568  143.3020  165.4880 O.2     1  UNL1       -0.2501
     35 O         141.7751  143.2741  165.1986 O.3     1  UNL1       -0.4485
     36 C         141.4716  145.1662  163.4442 C.3     1  UNL1        0.0513
     37 C         140.9149  144.0014  164.2081 C.3     1  UNL1        0.2086
@<TRIPOS>BOND
     1    36    37    1
     2    37    35    1
     3    35    33    1
     4    33    34    2
     5    33    27    1
     6    27    28    1
     7    28    29    1
     8    29    30    1
     9    30    26    1
    10    26    25    1
    11    25    24    1
    12    24    23    1
    13    23    22    1
    14    22     1    1
    15     1     2   ar
    16     2     3   ar
    17     3     4   ar
    18     4     7    1
    19     7     8    2
    20     7     9    2
    21     7    10    1
    22    10    11   am
    23    11    12    2
    24    11    13   am
    25    13    16    1
    26    16    17   ar
    27    17    18   ar
    28    18    19   ar
    29    19    20   ar
    30    20    21   ar
    31     4     5   ar
    32     5     6   ar
    33    30    31    1
    34    31    32    1
    35    32    27    1
    36     6     1   ar
    37    21    16   ar
    38    10    14    1
    39    13    15    1
