@<TRIPOS>MOLECULE
*****
 27 29 0 0 0
SMALL
GASTEIGER

@<TRIPOS>ATOM
      1 O         143.9971  138.2814  166.0319 O.2     1  UNL1       -0.2730
      2 C         142.6125  138.7593  166.3550 C.2     1  UNL1        0.2462
      3 C         142.3698  139.5754  167.5899 C.3     1  UNL1        0.1774
      4 N         140.9851  140.0533  167.9130 N.pl3   1  UNL1       -0.2960
      5 C         139.8432  139.7151  167.0011 C.3     1  UNL1        0.1128
      6 C         140.0859  138.8991  165.7662 C.3     1  UNL1        0.1151
      7 N         141.4705  138.4212  165.4431 N.am    1  UNL1       -0.2723
      8 C         140.7425  140.8694  169.1480 C.ar    1  UNL1        0.0848
      9 C         140.7322  140.2077  170.4941 C.ar    1  UNL1        0.1354
     10 N         140.4896  141.0237  171.7291 N.ar    1  UNL1       -0.1673
     11 N         140.2572  142.5015  171.6180 N.ar    1  UNL1       -0.2413
     12 C         140.2675  143.1632  170.2718 C.ar    1  UNL1        0.2850
     13 O         140.0351  144.6409  170.1607 O.2     1  UNL1       -0.2648
     14 C         140.5101  142.3471  169.0368 C.ar    1  UNL1        0.1296
     15 CL        140.5204  143.0087  167.6907 Cl      1  UNL1       -0.0759
     16 H         140.0979  143.0371  172.4285 H       1  UNL1        0.1922
     17 C         141.7132  137.6050  164.2081 C.3     1  UNL1        0.1202
     18 C         141.3527  138.1578  162.8611 C.ar    1  UNL1        0.0016
     19 C         140.0182  137.8419  162.2534 C.ar    1  UNL1       -0.0027
     20 C         139.6578  138.3947  160.9063 C.ar    1  UNL1       -0.0003
     21 C         140.6319  139.2633  160.1670 C.ar    1  UNL1       -0.0001
     22 C         141.9664  139.5792  160.7747 C.ar    1  UNL1        0.0036
     23 C         142.3268  139.0264  162.1217 C.ar    1  UNL1        0.0691
     24 C         143.6613  139.3423  162.7294 C.3     1  UNL1        0.4183
     25 F         144.9959  139.6582  163.3371 F       1  UNL1       -0.1659
     26 F         143.0674  140.5389  163.4117 F       1  UNL1       -0.1659
     27 F         144.2552  138.1457  162.0471 F       1  UNL1       -0.1659
@<TRIPOS>BOND
     1     1     2    2
     2     2     3    1
     3     3     4    1
     4     4     8    1
     5     8     9   ar
     6     9    10   ar
     7    10    11   ar
     8    11    12   ar
     9    12    13    2
    10    12    14   ar
    11    14    15    1
    12     4     5    1
    13     5     6    1
    14     6     7    1
    15     7    17    1
    16    17    18    1
    17    18    19   ar
    18    19    20   ar
    19    20    21   ar
    20    21    22   ar
    21    22    23   ar
    22    23    24    1
    23    24    25    1
    24    24    26    1
    25    24    27    1
    26     7     2   am
    27    23    18   ar
    28    14     8   ar
    29    11    16    1
@<TRIPOS>MOLECULE
*****
 27 29 0 0 0
SMALL
GASTEIGER

@<TRIPOS>ATOM
      1 O         138.0693  140.1081  164.7468 O.2     1  UNL1       -0.2730
      2 C         139.3494  140.7183  165.2358 C.2     1  UNL1        0.2462
      3 C         139.8056  140.4763  166.6441 C.3     1  UNL1        0.1774
      4 N         141.0857  141.0865  167.1331 N.pl3   1  UNL1       -0.2960
      5 C         141.9095  141.9387  166.2139 C.3     1  UNL1        0.1128
      6 C         141.4532  142.1808  164.8056 C.3     1  UNL1        0.1151
      7 N         140.1732  141.5706  164.3166 N.am    1  UNL1       -0.2723
      8 C         141.5419  140.8444  168.5414 C.ar    1  UNL1        0.0848
      9 C         142.5465  139.7684  168.8298 C.ar    1  UNL1        0.1354
     10 N         143.0027  139.5263  170.2381 N.ar    1  UNL1       -0.1673
     11 N         142.4544  140.3601  171.3580 N.ar    1  UNL1       -0.2413
     12 C         141.4499  141.4361  171.0695 C.ar    1  UNL1        0.2850
     13 O         140.9016  142.2700  172.1894 O.2     1  UNL1       -0.2648
     14 C         140.9937  141.6782  169.6612 C.ar    1  UNL1        0.1296
     15 CL        139.9891  142.7542  169.3728 Cl      1  UNL1       -0.0759
     16 H         142.7539  140.2012  172.2823 H       1  UNL1        0.1922
     17 C         139.7169  141.8127  162.9083 C.3     1  UNL1        0.1202
     18 C         139.9799  143.1354  162.2516 C.ar    1  UNL1        0.0016
     19 C         140.9400  143.2247  161.1026 C.ar    1  UNL1       -0.0027
     20 C         141.2029  144.5475  160.4460 C.ar    1  UNL1       -0.0003
     21 C         140.5058  145.7809  160.9383 C.ar    1  UNL1       -0.0001
     22 C         139.5457  145.6917  162.0874 C.ar    1  UNL1        0.0036
     23 C         139.2827  144.3690  162.7440 C.ar    1  UNL1        0.0691
     24 C         138.3226  144.2798  163.8930 C.3     1  UNL1        0.4183
     25 F         137.3625  144.1905  165.0421 F       1  UNL1       -0.1659
     26 F         137.2532  143.7913  162.9615 F       1  UNL1       -0.1659
     27 F         139.3920  144.7682  164.8246 F       1  UNL1       -0.1659
@<TRIPOS>BOND
     1     1     2    2
     2     2     3    1
     3     3     4    1
     4     4     8    1
     5     8     9   ar
     6     9    10   ar
     7    10    11   ar
     8    11    12   ar
     9    12    13    2
    10    12    14   ar
    11    14    15    1
    12     4     5    1
    13     5     6    1
    14     6     7    1
    15     7    17    1
    16    17    18    1
    17    18    19   ar
    18    19    20   ar
    19    20    21   ar
    20    21    22   ar
    21    22    23   ar
    22    23    24    1
    23    24    25    1
    24    24    26    1
    25    24    27    1
    26     7     2   am
    27    23    18   ar
    28    14     8   ar
    29    11    16    1
@<TRIPOS>MOLECULE
*****
 27 29 0 0 0
SMALL
GASTEIGER

@<TRIPOS>ATOM
      1 O         138.4213  138.2314  165.1331 O.2     1  UNL1       -0.2730
      2 C         139.6488  138.7392  165.8297 C.2     1  UNL1        0.2462
      3 C         139.5181  139.5381  167.0925 C.3     1  UNL1        0.1774
      4 N         140.7456  140.0460  167.7891 N.pl3   1  UNL1       -0.2960
      5 C         142.1038  139.7549  167.2230 C.3     1  UNL1        0.1128
      6 C         142.2345  138.9560  165.9602 C.3     1  UNL1        0.1151
      7 N         141.0070  138.4482  165.2635 N.am    1  UNL1       -0.2723
      8 C         140.6149  140.8449  169.0519 C.ar    1  UNL1        0.0848
      9 C         140.6727  140.1573  170.3838 C.ar    1  UNL1        0.1354
     10 N         140.5420  140.9561  171.6466 N.ar    1  UNL1       -0.1673
     11 N         140.3535  142.4427  171.5776 N.ar    1  UNL1       -0.2413
     12 C         140.2956  143.1303  170.2457 C.ar    1  UNL1        0.2850
     13 O         140.1071  144.6168  170.1767 O.2     1  UNL1       -0.2648
     14 C         140.4264  142.3314  168.9829 C.ar    1  UNL1        0.1296
     15 CL        140.3685  143.0190  167.6510 Cl      1  UNL1       -0.0759
     16 H         140.2677  142.9670  172.4064 H       1  UNL1        0.1922
     17 C         141.1377  137.6493  164.0007 C.3     1  UNL1        0.1202
     18 C         141.7369  138.2748  162.7761 C.ar    1  UNL1        0.0016
     19 C         143.2214  138.2367  162.5643 C.ar    1  UNL1       -0.0027
     20 C         143.8205  138.8622  161.3396 C.ar    1  UNL1       -0.0003
     21 C         142.9352  139.5259  160.3269 C.ar    1  UNL1       -0.0001
     22 C         141.4507  139.5641  160.5387 C.ar    1  UNL1        0.0036
     23 C         140.8516  138.9385  161.7633 C.ar    1  UNL1        0.0691
     24 C         139.3671  138.9767  161.9751 C.3     1  UNL1        0.4183
     25 F         137.8826  139.0148  162.1869 F       1  UNL1       -0.1659
     26 F         139.5052  140.2779  162.7084 F       1  UNL1       -0.1659
     27 F         139.2290  137.6754  161.2418 F       1  UNL1       -0.1659
@<TRIPOS>BOND
     1     1     2    2
     2     2     3    1
     3     3     4    1
     4     4     8    1
     5     8     9   ar
     6     9    10   ar
     7    10    11   ar
     8    11    12   ar
     9    12    13    2
    10    12    14   ar
    11    14    15    1
    12     4     5    1
    13     5     6    1
    14     6     7    1
    15     7    17    1
    16    17    18    1
    17    18    19   ar
    18    19    20   ar
    19    20    21   ar
    20    21    22   ar
    21    22    23   ar
    22    23    24    1
    23    24    25    1
    24    24    26    1
    25    24    27    1
    26     7     2   am
    27    23    18   ar
    28    14     8   ar
    29    11    16    1
@<TRIPOS>MOLECULE
*****
 27 29 0 0 0
SMALL
GASTEIGER

@<TRIPOS>ATOM
      1 O         140.9501  139.3724  164.7415 O.2     1  UNL1       -0.2730
      2 C         141.5025  140.7663  164.6991 C.2     1  UNL1        0.2462
      3 C         141.3155  141.6103  163.4732 C.3     1  UNL1        0.1774
      4 N         141.8679  143.0042  163.4308 N.pl3   1  UNL1       -0.2960
      5 C         142.6074  143.5542  164.6143 C.3     1  UNL1        0.1128
      6 C         142.7944  142.7103  165.8401 C.3     1  UNL1        0.1151
      7 N         142.2419  141.3164  165.8825 N.am    1  UNL1       -0.2723
      8 C         141.6809  143.8481  162.2049 C.ar    1  UNL1        0.0848
      9 C         142.6194  143.7026  161.0438 C.ar    1  UNL1        0.1354
     10 N         142.4324  144.5465  159.8179 N.ar    1  UNL1       -0.1673
     11 N         141.3068  145.5359  159.7530 N.ar    1  UNL1       -0.2413
     12 C         140.3682  145.6814  160.9140 C.ar    1  UNL1        0.2850
     13 O         139.2427  146.6707  160.8491 O.2     1  UNL1       -0.2648
     14 C         140.5553  144.8374  162.1400 C.ar    1  UNL1        0.1296
     15 CL        139.6167  144.9829  163.3010 Cl      1  UNL1       -0.0759
     16 H         141.1841  146.0897  158.9484 H       1  UNL1        0.1922
     17 C         142.4290  140.4724  167.1085 C.3     1  UNL1        0.1202
     18 C         141.4190  140.5247  168.2163 C.ar    1  UNL1        0.0016
     19 C         140.0432  139.9663  168.0038 C.ar    1  UNL1       -0.0027
     20 C         139.0332  140.0186  169.1116 C.ar    1  UNL1       -0.0003
     21 C         139.3991  140.6293  170.4319 C.ar    1  UNL1       -0.0001
     22 C         140.7750  141.1877  170.6444 C.ar    1  UNL1        0.0036
     23 C         141.7849  141.1354  169.5366 C.ar    1  UNL1        0.0691
     24 C         143.1608  141.6939  169.7491 C.3     1  UNL1        0.4183
     25 F         144.5367  142.2523  169.9616 F       1  UNL1       -0.1659
     26 F         142.7208  143.0017  169.1610 F       1  UNL1       -0.1659
     27 F         143.6008  140.3860  170.3372 F       1  UNL1       -0.1659
@<TRIPOS>BOND
     1     1     2    2
     2     2     3    1
     3     3     4    1
     4     4     8    1
     5     8     9   ar
     6     9    10   ar
     7    10    11   ar
     8    11    12   ar
     9    12    13    2
    10    12    14   ar
    11    14    15    1
    12     4     5    1
    13     5     6    1
    14     6     7    1
    15     7    17    1
    16    17    18    1
    17    18    19   ar
    18    19    20   ar
    19    20    21   ar
    20    21    22   ar
    21    22    23   ar
    22    23    24    1
    23    24    25    1
    24    24    26    1
    25    24    27    1
    26     7     2   am
    27    23    18   ar
    28    14     8   ar
    29    11    16    1
@<TRIPOS>MOLECULE
*****
 27 29 0 0 0
SMALL
GASTEIGER

@<TRIPOS>ATOM
      1 O         140.7159  138.6383  163.7088 O.2     1  UNL1       -0.2730
      2 C         141.2105  140.0327  163.9555 C.2     1  UNL1        0.2462
      3 C         141.1259  141.0620  162.8676 C.3     1  UNL1        0.1774
      4 N         141.6205  142.4564  163.1143 N.pl3   1  UNL1       -0.2960
      5 C         142.1996  142.8217  164.4489 C.3     1  UNL1        0.1128
      6 C         142.2842  141.7925  165.5367 C.3     1  UNL1        0.1151
      7 N         141.7897  140.3980  165.2900 N.am    1  UNL1       -0.2723
      8 C         141.5358  143.4857  162.0263 C.ar    1  UNL1        0.0848
      9 C         142.5398  143.4832  160.9119 C.ar    1  UNL1        0.1354
     10 N         142.4552  144.5124  159.8240 N.ar    1  UNL1       -0.1673
     11 N         141.3666  145.5441  159.8505 N.ar    1  UNL1       -0.2413
     12 C         140.3626  145.5465  160.9649 C.ar    1  UNL1        0.2850
     13 O         139.2741  146.5781  160.9914 O.2     1  UNL1       -0.2648
     14 C         140.4473  144.5173  162.0529 C.ar    1  UNL1        0.1296
     15 CL        139.4433  144.5197  163.1673 Cl      1  UNL1       -0.0759
     16 H         141.3111  146.2196  159.1364 H       1  UNL1        0.1922
     17 C         141.8743  139.3688  166.3780 C.3     1  UNL1        0.1202
     18 C         141.3684  139.6881  167.7535 C.ar    1  UNL1        0.0016
     19 C         142.3153  139.7001  168.9168 C.ar    1  UNL1       -0.0027
     20 C         141.8093  140.0195  170.2924 C.ar    1  UNL1       -0.0003
     21 C         140.3566  140.3267  170.5046 C.ar    1  UNL1       -0.0001
     22 C         139.4097  140.3147  169.3413 C.ar    1  UNL1        0.0036
     23 C         139.9156  139.9954  167.9658 C.ar    1  UNL1        0.0691
     24 C         138.9687  139.9833  166.8024 C.3     1  UNL1        0.4183
     25 F         138.0219  139.9713  165.6391 F       1  UNL1       -0.1659
     26 F         138.6753  138.5344  167.0563 F       1  UNL1       -0.1659
     27 F         139.2622  141.4323  166.5486 F       1  UNL1       -0.1659
@<TRIPOS>BOND
     1     1     2    2
     2     2     3    1
     3     3     4    1
     4     4     8    1
     5     8     9   ar
     6     9    10   ar
     7    10    11   ar
     8    11    12   ar
     9    12    13    2
    10    12    14   ar
    11    14    15    1
    12     4     5    1
    13     5     6    1
    14     6     7    1
    15     7    17    1
    16    17    18    1
    17    18    19   ar
    18    19    20   ar
    19    20    21   ar
    20    21    22   ar
    21    22    23   ar
    22    23    24    1
    23    24    25    1
    24    24    26    1
    25    24    27    1
    26     7     2   am
    27    23    18   ar
    28    14     8   ar
    29    11    16    1
@<TRIPOS>MOLECULE
*****
 27 29 0 0 0
SMALL
GASTEIGER

@<TRIPOS>ATOM
      1 O         143.1712  138.2202  164.7247 O.2     1  UNL1       -0.2730
      2 C         142.5483  139.5079  165.1761 C.2     1  UNL1        0.2462
      3 C         142.7117  139.9628  166.5961 C.3     1  UNL1        0.1774
      4 N         142.0888  141.2505  167.0475 N.pl3   1  UNL1       -0.2960
      5 C         141.3023  142.0832  166.0791 C.3     1  UNL1        0.1128
      6 C         141.1389  141.6283  164.6591 C.3     1  UNL1        0.1151
      7 N         141.7618  140.3407  164.2077 N.am    1  UNL1       -0.2723
      8 C         142.2522  141.7054  168.4676 C.ar    1  UNL1        0.0848
      9 C         143.4264  142.5559  168.8522 C.ar    1  UNL1        0.1354
     10 N         143.5899  143.0108  170.2721 N.ar    1  UNL1       -0.1673
     11 N         142.5793  142.6151  171.3076 N.ar    1  UNL1       -0.2413
     12 C         141.4051  141.7646  170.9230 C.ar    1  UNL1        0.2850
     13 O         140.3945  141.3689  171.9583 O.2     1  UNL1       -0.2648
     14 C         141.2416  141.3097  169.5029 C.ar    1  UNL1        0.1296
     15 CL        140.0675  140.4591  169.1184 Cl      1  UNL1       -0.0759
     16 H         142.6866  142.9137  172.2395 H       1  UNL1        0.1922
     17 C         141.5984  139.8858  162.7876 C.3     1  UNL1        0.1202
     18 C         140.2378  139.8725  162.1563 C.ar    1  UNL1        0.0016
     19 C         139.9351  140.7882  161.0074 C.ar    1  UNL1       -0.0027
     20 C         138.5745  140.7749  160.3760 C.ar    1  UNL1       -0.0003
     21 C         137.5166  139.8459  160.8935 C.ar    1  UNL1       -0.0001
     22 C         137.8193  138.9302  162.0424 C.ar    1  UNL1        0.0036
     23 C         139.1798  138.9435  162.6738 C.ar    1  UNL1        0.0691
     24 C         139.4825  138.0278  163.8226 C.3     1  UNL1        0.4183
     25 F         139.7852  137.1121  164.9715 F       1  UNL1       -0.1659
     26 F         138.8716  139.0162  164.7713 F       1  UNL1       -0.1659
     27 F         140.0933  137.0394  162.8739 F       1  UNL1       -0.1659
@<TRIPOS>BOND
     1     1     2    2
     2     2     3    1
     3     3     4    1
     4     4     8    1
     5     8     9   ar
     6     9    10   ar
     7    10    11   ar
     8    11    12   ar
     9    12    13    2
    10    12    14   ar
    11    14    15    1
    12     4     5    1
    13     5     6    1
    14     6     7    1
    15     7    17    1
    16    17    18    1
    17    18    19   ar
    18    19    20   ar
    19    20    21   ar
    20    21    22   ar
    21    22    23   ar
    22    23    24    1
    23    24    25    1
    24    24    26    1
    25    24    27    1
    26     7     2   am
    27    23    18   ar
    28    14     8   ar
    29    11    16    1
@<TRIPOS>MOLECULE
*****
 27 29 0 0 0
SMALL
GASTEIGER

@<TRIPOS>ATOM
      1 O         138.9155  143.8071  164.2658 O.2     1  UNL1       -0.2730
      2 C         139.2537  142.6741  165.1888 C.2     1  UNL1        0.2462
      3 C         139.9732  142.9451  166.4767 C.3     1  UNL1        0.1774
      4 N         140.3114  141.8120  167.3997 N.pl3   1  UNL1       -0.2960
      5 C         139.9300  140.4080  167.0348 C.3     1  UNL1        0.1128
      6 C         139.2104  140.1370  165.7469 C.3     1  UNL1        0.1151
      7 N         138.8723  141.2700  164.8239 N.am    1  UNL1       -0.2723
      8 C         141.0310  142.0831  168.6877 C.ar    1  UNL1        0.0848
      9 C         140.2708  142.1083  169.9806 C.ar    1  UNL1        0.1354
     10 N         140.9903  142.3794  171.2685 N.ar    1  UNL1       -0.1673
     11 N         142.4701  142.6252  171.2636 N.ar    1  UNL1       -0.2413
     12 C         143.2303  142.6000  169.9707 C.ar    1  UNL1        0.2850
     13 O         144.7099  142.8458  169.9658 O.2     1  UNL1       -0.2648
     14 C         142.5107  142.3289  168.6827 C.ar    1  UNL1        0.1296
     15 CL        143.2708  142.3037  167.3899 Cl      1  UNL1       -0.0759
     16 H         142.9423  142.8031  172.1089 H       1  UNL1        0.1922
     17 C         138.1527  140.9990  163.5360 C.3     1  UNL1        0.1202
     18 C         138.9303  140.8173  162.2662 C.ar    1  UNL1        0.0016
     19 C         139.3632  142.0151  161.4739 C.ar    1  UNL1       -0.0027
     20 C         140.1408  141.8333  160.2041 C.ar    1  UNL1       -0.0003
     21 C         140.4856  140.4538  159.7267 C.ar    1  UNL1       -0.0001
     22 C         140.0527  139.2559  160.5191 C.ar    1  UNL1        0.0036
     23 C         139.2751  139.4376  161.7888 C.ar    1  UNL1        0.0691
     24 C         138.8422  138.2398  162.5811 C.3     1  UNL1        0.4183
     25 F         138.4093  137.0420  163.3735 F       1  UNL1       -0.1659
     26 F         137.5105  138.2647  161.8912 F       1  UNL1       -0.1659
     27 F         140.1739  138.2149  163.2711 F       1  UNL1       -0.1659
@<TRIPOS>BOND
     1     1     2    2
     2     2     3    1
     3     3     4    1
     4     4     8    1
     5     8     9   ar
     6     9    10   ar
     7    10    11   ar
     8    11    12   ar
     9    12    13    2
    10    12    14   ar
    11    14    15    1
    12     4     5    1
    13     5     6    1
    14     6     7    1
    15     7    17    1
    16    17    18    1
    17    18    19   ar
    18    19    20   ar
    19    20    21   ar
    20    21    22   ar
    21    22    23   ar
    22    23    24    1
    23    24    25    1
    24    24    26    1
    25    24    27    1
    26     7     2   am
    27    23    18   ar
    28    14     8   ar
    29    11    16    1
@<TRIPOS>MOLECULE
*****
 27 29 0 0 0
SMALL
GASTEIGER

@<TRIPOS>ATOM
      1 O         142.5086  143.0202  163.6680 O.2     1  UNL1       -0.2730
      2 C         141.6012  142.4196  164.7005 C.2     1  UNL1        0.2462
      3 C         142.0529  142.3166  166.1271 C.3     1  UNL1        0.1774
      4 N         141.1456  141.7159  167.1596 N.pl3   1  UNL1       -0.2960
      5 C         139.7866  141.2183  166.7654 C.3     1  UNL1        0.1128
      6 C         139.3349  141.3213  165.3388 C.3     1  UNL1        0.1151
      7 N         140.2422  141.9219  164.3063 N.am    1  UNL1       -0.2723
      8 C         141.5974  141.6130  168.5863 C.ar    1  UNL1        0.0848
      9 C         141.2438  142.6935  169.5648 C.ar    1  UNL1        0.1354
     10 N         141.6955  142.5905  170.9914 N.ar    1  UNL1       -0.1673
     11 N         142.5008  141.4070  171.4396 N.ar    1  UNL1       -0.2413
     12 C         142.8544  140.3265  170.4611 C.ar    1  UNL1        0.2850
     13 O         143.6597  139.1431  170.9092 O.2     1  UNL1       -0.2648
     14 C         142.4027  140.4295  169.0344 C.ar    1  UNL1        0.1296
     15 CL        142.7563  139.3490  168.0559 Cl      1  UNL1       -0.0759
     16 H         142.7973  141.3395  172.3760 H       1  UNL1        0.1922
     17 C         139.7905  142.0249  162.8796 C.3     1  UNL1        0.1202
     18 C         139.9455  143.3179  162.1353 C.ar    1  UNL1        0.0016
     19 C         140.7884  143.3734  160.8958 C.ar    1  UNL1       -0.0027
     20 C         140.9434  144.6665  160.1514 C.ar    1  UNL1       -0.0003
     21 C         140.2556  145.9040  160.6467 C.ar    1  UNL1       -0.0001
     22 C         139.4127  145.8486  161.8862 C.ar    1  UNL1        0.0036
     23 C         139.2577  144.5556  162.6305 C.ar    1  UNL1        0.0691
     24 C         138.4148  144.5001  163.8701 C.3     1  UNL1        0.4183
     25 F         137.5719  144.4447  165.1096 F       1  UNL1       -0.1659
     26 F         137.2576  143.9945  163.0606 F       1  UNL1       -0.1659
     27 F         139.5720  145.0058  164.6796 F       1  UNL1       -0.1659
@<TRIPOS>BOND
     1     1     2    2
     2     2     3    1
     3     3     4    1
     4     4     8    1
     5     8     9   ar
     6     9    10   ar
     7    10    11   ar
     8    11    12   ar
     9    12    13    2
    10    12    14   ar
    11    14    15    1
    12     4     5    1
    13     5     6    1
    14     6     7    1
    15     7    17    1
    16    17    18    1
    17    18    19   ar
    18    19    20   ar
    19    20    21   ar
    20    21    22   ar
    21    22    23   ar
    22    23    24    1
    23    24    25    1
    24    24    26    1
    25    24    27    1
    26     7     2   am
    27    23    18   ar
    28    14     8   ar
    29    11    16    1
@<TRIPOS>MOLECULE
*****
 27 29 0 0 0
SMALL
GASTEIGER

@<TRIPOS>ATOM
      1 O         139.9793  143.4454  163.2303 O.2     1  UNL1       -0.2730
      2 C         140.8363  143.0612  164.3999 C.2     1  UNL1        0.2462
      3 C         140.2338  142.9591  165.7697 C.3     1  UNL1        0.1774
      4 N         141.0908  142.5749  166.9393 N.pl3   1  UNL1       -0.2960
      5 C         142.5503  142.2927  166.7390 C.3     1  UNL1        0.1128
      6 C         143.1528  142.3948  165.3692 C.3     1  UNL1        0.1151
      7 N         142.2958  142.7790  164.1996 N.am    1  UNL1       -0.2723
      8 C         140.4882  142.4728  168.3092 C.ar    1  UNL1        0.0848
      9 C         140.4625  143.6730  169.2085 C.ar    1  UNL1        0.1354
     10 N         139.8599  143.5710  170.5784 N.ar    1  UNL1       -0.1673
     11 N         139.2830  142.2687  171.0489 N.ar    1  UNL1       -0.2413
     12 C         139.3086  141.0685  170.1495 C.ar    1  UNL1        0.2850
     13 O         138.7318  139.7663  170.6200 O.2     1  UNL1       -0.2648
     14 C         139.9113  141.1706  168.7796 C.ar    1  UNL1        0.1296
     15 CL        139.9369  139.9704  167.8803 Cl      1  UNL1       -0.0759
     16 H         138.8875  142.2018  171.9480 H       1  UNL1        0.1922
     17 C         142.8984  142.8810  162.8297 C.3     1  UNL1        0.1202
     18 C         142.9504  141.6735  161.9414 C.ar    1  UNL1        0.0016
     19 C         141.8597  141.4311  160.9406 C.ar    1  UNL1       -0.0027
     20 C         141.9117  140.2235  160.0523 C.ar    1  UNL1       -0.0003
     21 C         143.0545  139.2585  160.1647 C.ar    1  UNL1       -0.0001
     22 C         144.1452  139.5009  161.1654 C.ar    1  UNL1        0.0036
     23 C         144.0932  140.7084  162.0538 C.ar    1  UNL1        0.0691
     24 C         145.1840  140.9508  163.0545 C.3     1  UNL1        0.4183
     25 F         146.2747  141.1932  164.0553 F       1  UNL1       -0.1659
     26 F         145.7471  142.0308  162.1791 F       1  UNL1       -0.1659
     27 F         144.6208  139.8708  163.9299 F       1  UNL1       -0.1659
@<TRIPOS>BOND
     1     1     2    2
     2     2     3    1
     3     3     4    1
     4     4     8    1
     5     8     9   ar
     6     9    10   ar
     7    10    11   ar
     8    11    12   ar
     9    12    13    2
    10    12    14   ar
    11    14    15    1
    12     4     5    1
    13     5     6    1
    14     6     7    1
    15     7    17    1
    16    17    18    1
    17    18    19   ar
    18    19    20   ar
    19    20    21   ar
    20    21    22   ar
    21    22    23   ar
    22    23    24    1
    23    24    25    1
    24    24    26    1
    25    24    27    1
    26     7     2   am
    27    23    18   ar
    28    14     8   ar
    29    11    16    1
