@<TRIPOS>MOLECULE
*****
 34 37 0 0 0
SMALL
GASTEIGER

@<TRIPOS>ATOM
      1 C         141.6226  138.5184  160.4934 C.3     1  UNL1        0.0118
      2 C         142.1626  137.8035  161.6964 C.3     1  UNL1        0.0179
      3 C         141.2417  137.4186  162.8161 C.3     1  UNL1        0.0724
      4 N         139.7808  137.7486  162.7328 N.3     1  UNL1       -0.2689
      5 C         139.2408  138.4635  161.5298 C.3     1  UNL1        0.0724
      6 C         140.1617  138.8485  160.4101 C.3     1  UNL1        0.0179
      7 C         142.5435  138.9034  159.3737 C.3     1  UNL1        0.0851
      8 N         143.2695  141.0270  160.6826 N.am    1  UNL1       -0.2992
      9 C         143.4361  140.1006  159.5146 C.2     1  UNL1        0.2227
     10 O         144.4953  140.3715  158.4876 O.2     1  UNL1       -0.2751
     11 H         142.5743  140.8492  161.3567 H       1  UNL1        0.1498
     12 C         144.1620  142.2242  160.8236 C.3     1  UNL1        0.1337
     13 C         145.6992  141.4317  163.5909 C.3     1  UNL1        0.1302
     14 N         144.8611  142.6554  163.3672 N.ar    1  UNL1       -0.3260
     15 C         144.5824  143.7297  164.3763 C.ar    1  UNL1        0.0758
     16 C         143.7036  144.7580  163.7279 C.ar    1  UNL1        0.0199
     17 C         143.4391  144.3192  162.3182 C.ar    1  UNL1        0.0160
     18 C         144.1545  143.0197  162.0952 C.ar    1  UNL1        0.0571
     19 C         138.8599  137.3636  163.8526 C.3     1  UNL1        0.1007
     20 C         138.9058  138.1113  165.1521 C.ar    1  UNL1        0.0129
     21 C         137.8350  138.1203  166.2024 C.ar    1  UNL1        0.0176
     22 C         138.2980  138.9958  167.3290 C.ar    1  UNL1        0.0799
     23 N         139.6551  139.5279  166.9749 N.ar    1  UNL1       -0.3038
     24 C         140.0307  138.9812  165.6295 C.ar    1  UNL1        0.0772
     25 C         140.4899  140.4454  167.8181 C.ar    1  UNL1        0.0640
     26 C         141.9224  140.7022  167.4548 C.ar    1  UNL1        0.0175
     27 C         142.7572  141.6198  168.2980 C.ar    1  UNL1        0.0053
     28 C         142.1596  142.2806  169.5046 C.ar    1  UNL1        0.0715
     29 C         140.7271  142.0239  169.8681 C.ar    1  UNL1        0.0053
     30 C         139.8923  141.1063  169.0249 C.ar    1  UNL1        0.0175
     31 C         142.9944  143.1982  170.3479 C.3     1  UNL1        0.4186
     32 F         143.8293  144.1158  171.1911 F       1  UNL1       -0.1659
     33 F         141.8296  144.1336  170.4831 F       1  UNL1       -0.1659
     34 F         144.1592  142.2628  170.2127 F       1  UNL1       -0.1659
@<TRIPOS>BOND
     1    13    14    1
     2    14    15   ar
     3    15    16   ar
     4    16    17   ar
     5    17    18   ar
     6    18    12    1
     7    12     8    1
     8     8     9   am
     9     9    10    2
    10     9     7    1
    11     7     1    1
    12     1     2    1
    13     2     3    1
    14     3     4    1
    15     4    19    1
    16    19    20    1
    17    20    21   ar
    18    21    22   ar
    19    22    23   ar
    20    23    25    1
    21    25    26   ar
    22    26    27   ar
    23    27    28   ar
    24    28    31    1
    25    31    32    1
    26    31    33    1
    27    31    34    1
    28    28    29   ar
    29    29    30   ar
    30    23    24   ar
    31     4     5    1
    32     5     6    1
    33    18    14   ar
    34     6     1    1
    35    24    20   ar
    36    30    25   ar
    37     8    11    1
@<TRIPOS>MOLECULE
*****
 34 37 0 0 0
SMALL
GASTEIGER

@<TRIPOS>ATOM
      1 C         140.0994  144.5439  159.3461 C.3     1  UNL1        0.0118
      2 C         139.3310  143.2569  159.4025 C.3     1  UNL1        0.0179
      3 C         138.5846  142.8831  160.6487 C.3     1  UNL1        0.0724
      4 N         138.6065  143.7963  161.8385 N.3     1  UNL1       -0.2689
      5 C         139.3749  145.0833  161.7821 C.3     1  UNL1        0.0724
      6 C         140.1214  145.4571  160.5359 C.3     1  UNL1        0.0179
      7 C         140.8459  144.9177  158.0999 C.3     1  UNL1        0.0851
      8 N         140.0238  146.9193  156.6618 N.am    1  UNL1       -0.2992
      9 C         140.1009  145.4416  156.9080 C.2     1  UNL1        0.2227
     10 O         139.4330  144.4878  155.9624 O.2     1  UNL1       -0.2751
     11 H         140.4622  147.5453  157.2824 H       1  UNL1        0.1498
     12 C         139.2789  147.4431  155.4699 C.3     1  UNL1        0.1337
     13 C         138.0605  149.6044  157.5897 C.3     1  UNL1        0.1302
     14 N         138.5997  149.9156  156.2250 N.ar    1  UNL1       -0.3260
     15 C         138.6735  151.2749  155.5951 C.ar    1  UNL1        0.0758
     16 C         139.2791  151.1216  154.2314 C.ar    1  UNL1        0.0199
     17 C         139.5796  149.6675  154.0185 C.ar    1  UNL1        0.0160
     18 C         139.1597  148.9222  155.2506 C.ar    1  UNL1        0.0571
     19 C         137.8600  143.4225  163.0848 C.3     1  UNL1        0.1007
     20 C         138.3320  142.2735  163.9256 C.ar    1  UNL1        0.0129
     21 C         137.9329  140.8371  163.7596 C.ar    1  UNL1        0.0176
     22 C         138.6402  140.0350  164.8114 C.ar    1  UNL1        0.0799
     23 N         139.4765  140.9756  165.6274 N.ar    1  UNL1       -0.3038
     24 C         139.2860  142.3591  165.0799 C.ar    1  UNL1        0.0772
     25 C         140.3499  140.5989  166.7873 C.ar    1  UNL1        0.0640
     26 C         139.7508  140.4223  168.1510 C.ar    1  UNL1        0.0175
     27 C         140.6242  140.0456  169.3108 C.ar    1  UNL1        0.0053
     28 C         142.0967  139.8455  169.1069 C.ar    1  UNL1        0.0715
     29 C         142.6959  140.0222  167.7432 C.ar    1  UNL1        0.0053
     30 C         141.8225  140.3989  166.5834 C.ar    1  UNL1        0.0175
     31 C         142.9701  139.4688  170.2668 C.3     1  UNL1        0.4186
     32 F         143.8435  139.0920  171.4266 F       1  UNL1       -0.1659
     33 F         143.5323  140.8592  170.2950 F       1  UNL1       -0.1659
     34 F         142.4079  138.0784  170.2386 F       1  UNL1       -0.1659
@<TRIPOS>BOND
     1    13    14    1
     2    14    15   ar
     3    15    16   ar
     4    16    17   ar
     5    17    18   ar
     6    18    12    1
     7    12     8    1
     8     8     9   am
     9     9    10    2
    10     9     7    1
    11     7     1    1
    12     1     2    1
    13     2     3    1
    14     3     4    1
    15     4    19    1
    16    19    20    1
    17    20    21   ar
    18    21    22   ar
    19    22    23   ar
    20    23    25    1
    21    25    26   ar
    22    26    27   ar
    23    27    28   ar
    24    28    31    1
    25    31    32    1
    26    31    33    1
    27    31    34    1
    28    28    29   ar
    29    29    30   ar
    30    23    24   ar
    31     4     5    1
    32     5     6    1
    33    18    14   ar
    34     6     1    1
    35    24    20   ar
    36    30    25   ar
    37     8    11    1
@<TRIPOS>MOLECULE
*****
 34 37 0 0 0
SMALL
GASTEIGER

@<TRIPOS>ATOM
      1 C         140.9934  138.9925  159.9460 C.3     1  UNL1        0.0118
      2 C         139.5185  139.0847  160.2031 C.3     1  UNL1        0.0179
      3 C         138.9397  138.5130  161.4633 C.3     1  UNL1        0.0724
      4 N         139.8359  137.8491  162.4663 N.3     1  UNL1       -0.2689
      5 C         141.3108  137.7568  162.2092 C.3     1  UNL1        0.0724
      6 C         141.8895  138.3285  160.9490 C.3     1  UNL1        0.0179
      7 C         141.5722  139.5642  158.6857 C.3     1  UNL1        0.0851
      8 N         141.9319  137.4138  157.2727 N.am    1  UNL1       -0.2992
      9 C         142.4464  138.7165  157.8099 C.2     1  UNL1        0.2227
     10 O         143.8350  139.1713  157.4712 O.2     1  UNL1       -0.2751
     11 H         141.0204  137.1153  157.4950 H       1  UNL1        0.1498
     12 C         142.8060  136.5661  156.3969 C.3     1  UNL1        0.1337
     13 C         143.8525  133.9079  157.9744 C.3     1  UNL1        0.1302
     14 N         142.8966  133.9281  156.8186 N.ar    1  UNL1       -0.3260
     15 C         142.2539  132.7300  156.1851 C.ar    1  UNL1        0.0758
     16 C         141.3756  133.2114  155.0683 C.ar    1  UNL1        0.0199
     17 C         141.4756  134.7070  155.0118 C.ar    1  UNL1        0.0160
     18 C         142.4156  135.1500  156.0935 C.ar    1  UNL1        0.0571
     19 C         139.2571  137.2773  163.7266 C.3     1  UNL1        0.1007
     20 C         139.2441  138.0947  164.9842 C.ar    1  UNL1        0.0129
     21 C         138.0833  138.2532  165.9208 C.ar    1  UNL1        0.0176
     22 C         138.5114  139.1536  167.0415 C.ar    1  UNL1        0.0799
     23 N         139.9369  139.5517  166.7975 N.ar    1  UNL1       -0.3038
     24 C         140.3897  138.8973  165.5260 C.ar    1  UNL1        0.0772
     25 C         140.7643  140.4470  167.6715 C.ar    1  UNL1        0.0640
     26 C         142.0681  139.9561  168.2272 C.ar    1  UNL1        0.0175
     27 C         142.8955  140.8514  169.1012 C.ar    1  UNL1        0.0053
     28 C         142.4191  142.2376  169.4194 C.ar    1  UNL1        0.0715
     29 C         141.1152  142.7286  168.8637 C.ar    1  UNL1        0.0053
     30 C         140.2878  141.8333  167.9897 C.ar    1  UNL1        0.0175
     31 C         143.2464  143.1329  170.2934 C.3     1  UNL1        0.4186
     32 F         144.0739  144.0281  171.1674 F       1  UNL1       -0.1659
     33 F         142.0780  144.0605  170.4492 F       1  UNL1       -0.1659
     34 F         144.4149  142.2052  170.1376 F       1  UNL1       -0.1659
@<TRIPOS>BOND
     1    13    14    1
     2    14    15   ar
     3    15    16   ar
     4    16    17   ar
     5    17    18   ar
     6    18    12    1
     7    12     8    1
     8     8     9   am
     9     9    10    2
    10     9     7    1
    11     7     1    1
    12     1     2    1
    13     2     3    1
    14     3     4    1
    15     4    19    1
    16    19    20    1
    17    20    21   ar
    18    21    22   ar
    19    22    23   ar
    20    23    25    1
    21    25    26   ar
    22    26    27   ar
    23    27    28   ar
    24    28    31    1
    25    31    32    1
    26    31    33    1
    27    31    34    1
    28    28    29   ar
    29    29    30   ar
    30    23    24   ar
    31     4     5    1
    32     5     6    1
    33    18    14   ar
    34     6     1    1
    35    24    20   ar
    36    30    25   ar
    37     8    11    1
@<TRIPOS>MOLECULE
*****
 34 37 0 0 0
SMALL
GASTEIGER

@<TRIPOS>ATOM
      1 C         142.0560  138.2854  158.0599 C.3     1  UNL1        0.0118
      2 C         142.4242  138.1781  159.5100 C.3     1  UNL1        0.0179
      3 C         141.3743  138.3599  160.5657 C.3     1  UNL1        0.0724
      4 N         139.9563  138.6491  160.1714 N.3     1  UNL1       -0.2689
      5 C         139.5881  138.7564  158.7213 C.3     1  UNL1        0.0724
      6 C         140.6379  138.5745  157.6655 C.3     1  UNL1        0.0179
      7 C         143.1059  138.1035  157.0040 C.3     1  UNL1        0.0851
      8 N         142.2796  135.6791  156.5685 N.am    1  UNL1       -0.2992
      9 C         143.2936  136.7638  156.3560 C.2     1  UNL1        0.2227
     10 O         144.4954  136.5089  155.4953 O.2     1  UNL1       -0.2751
     11 H         141.4908  135.8464  157.1334 H       1  UNL1        0.1498
     12 C         142.4674  134.3394  155.9205 C.3     1  UNL1        0.1337
     13 C         143.5145  131.6215  154.4489 C.3     1  UNL1        0.1302
     14 N         143.9686  132.1320  155.7842 N.ar    1  UNL1       -0.3260
     15 C         144.9837  131.4829  156.6776 C.ar    1  UNL1        0.0758
     16 C         145.1298  132.3310  157.9062 C.ar    1  UNL1        0.0199
     17 C         144.2049  133.5043  157.7721 C.ar    1  UNL1        0.0160
     18 C         143.4872  133.3814  156.4606 C.ar    1  UNL1        0.0571
     19 C         138.9064  138.8309  161.2272 C.3     1  UNL1        0.1007
     20 C         139.2867  138.7921  162.6776 C.ar    1  UNL1        0.0129
     21 C         139.1418  137.6149  163.5959 C.ar    1  UNL1        0.0176
     22 C         139.6443  138.0189  164.9503 C.ar    1  UNL1        0.0799
     23 N         140.0998  139.4458  164.8691 N.ar    1  UNL1       -0.3038
     24 C         139.8788  139.9237  163.4645 C.ar    1  UNL1        0.0772
     25 C         140.6752  140.2531  165.9948 C.ar    1  UNL1        0.0640
     26 C         141.8155  139.7078  166.8023 C.ar    1  UNL1        0.0175
     27 C         142.3909  140.5150  167.9280 C.ar    1  UNL1        0.0053
     28 C         141.8260  141.8676  168.2461 C.ar    1  UNL1        0.0715
     29 C         140.6857  142.4130  167.4386 C.ar    1  UNL1        0.0053
     30 C         140.1102  141.6057  166.3129 C.ar    1  UNL1        0.0175
     31 C         142.4014  142.6749  169.3718 C.3     1  UNL1        0.4186
     32 F         142.9770  143.4821  170.4975 F       1  UNL1       -0.1659
     33 F         141.1149  143.4382  169.4820 F       1  UNL1       -0.1659
     34 F         143.6880  141.9115  169.2616 F       1  UNL1       -0.1659
@<TRIPOS>BOND
     1    13    14    1
     2    14    15   ar
     3    15    16   ar
     4    16    17   ar
     5    17    18   ar
     6    18    12    1
     7    12     8    1
     8     8     9   am
     9     9    10    2
    10     9     7    1
    11     7     1    1
    12     1     2    1
    13     2     3    1
    14     3     4    1
    15     4    19    1
    16    19    20    1
    17    20    21   ar
    18    21    22   ar
    19    22    23   ar
    20    23    25    1
    21    25    26   ar
    22    26    27   ar
    23    27    28   ar
    24    28    31    1
    25    31    32    1
    26    31    33    1
    27    31    34    1
    28    28    29   ar
    29    29    30   ar
    30    23    24   ar
    31     4     5    1
    32     5     6    1
    33    18    14   ar
    34     6     1    1
    35    24    20   ar
    36    30    25   ar
    37     8    11    1
@<TRIPOS>MOLECULE
*****
 34 37 0 0 0
SMALL
GASTEIGER

@<TRIPOS>ATOM
      1 C         141.6905  138.8046  158.5890 C.3     1  UNL1        0.0118
      2 C         142.5603  138.4168  159.7478 C.3     1  UNL1        0.0179
      3 C         141.9373  138.0131  161.0512 C.3     1  UNL1        0.0724
      4 N         140.4444  137.9973  161.1957 N.3     1  UNL1       -0.2689
      5 C         139.5745  138.3850  160.0369 C.3     1  UNL1        0.0724
      6 C         140.1975  138.7887  158.7335 C.3     1  UNL1        0.0179
      7 C         142.3135  139.2083  157.2855 C.3     1  UNL1        0.0851
      8 N         143.7525  137.1890  156.5096 N.am    1  UNL1       -0.2992
      9 C         142.6433  138.1669  156.2575 C.2     1  UNL1        0.2227
     10 O         141.8640  138.1034  154.9775 O.2     1  UNL1       -0.2751
     11 H         144.2640  137.2307  157.3498 H       1  UNL1        0.1498
     12 C         144.0823  136.1477  155.4816 C.3     1  UNL1        0.1337
     13 C         143.4576  133.7547  157.6107 C.3     1  UNL1        0.1302
     14 N         142.8657  133.8914  156.2392 N.ar    1  UNL1       -0.3260
     15 C         141.8828  132.9521  155.6056 C.ar    1  UNL1        0.0758
     16 C         141.5624  133.4715  154.2353 C.ar    1  UNL1        0.0199
     17 C         142.3473  134.7318  154.0221 C.ar    1  UNL1        0.0160
     18 C         143.1528  134.9913  155.2606 C.ar    1  UNL1        0.0571
     19 C         139.8213  137.5936  162.4992 C.3     1  UNL1        0.1007
     20 C         139.6443  138.6064  163.5913 C.ar    1  UNL1        0.0129
     21 C         138.3799  139.3482  163.9094 C.ar    1  UNL1        0.0176
     22 C         138.6547  140.2554  165.0718 C.ar    1  UNL1        0.0799
     23 N         140.0889  140.0744  165.4723 N.ar    1  UNL1       -0.3038
     24 C         140.7005  139.0552  164.5573 C.ar    1  UNL1        0.0772
     25 C         140.7887  140.7874  166.5912 C.ar    1  UNL1        0.0640
     26 C         142.0532  140.2216  167.1663 C.ar    1  UNL1        0.0175
     27 C         142.7529  140.9346  168.2852 C.ar    1  UNL1        0.0053
     28 C         142.1881  142.2133  168.8291 C.ar    1  UNL1        0.0715
     29 C         140.9236  142.7791  168.2540 C.ar    1  UNL1        0.0053
     30 C         140.2238  142.0661  167.1351 C.ar    1  UNL1        0.0175
     31 C         142.8879  142.9262  169.9480 C.3     1  UNL1        0.4186
     32 F         143.5876  143.6392  171.0670 F       1  UNL1       -0.1659
     33 F         144.0959  142.0608  169.7439 F       1  UNL1       -0.1659
     34 F         141.6798  143.7917  170.1521 F       1  UNL1       -0.1659
@<TRIPOS>BOND
     1    13    14    1
     2    14    15   ar
     3    15    16   ar
     4    16    17   ar
     5    17    18   ar
     6    18    12    1
     7    12     8    1
     8     8     9   am
     9     9    10    2
    10     9     7    1
    11     7     1    1
    12     1     2    1
    13     2     3    1
    14     3     4    1
    15     4    19    1
    16    19    20    1
    17    20    21   ar
    18    21    22   ar
    19    22    23   ar
    20    23    25    1
    21    25    26   ar
    22    26    27   ar
    23    27    28   ar
    24    28    31    1
    25    31    32    1
    26    31    33    1
    27    31    34    1
    28    28    29   ar
    29    29    30   ar
    30    23    24   ar
    31     4     5    1
    32     5     6    1
    33    18    14   ar
    34     6     1    1
    35    24    20   ar
    36    30    25   ar
    37     8    11    1
@<TRIPOS>MOLECULE
*****
 34 37 0 0 0
SMALL
GASTEIGER

@<TRIPOS>ATOM
      1 C         139.5157  139.6729  159.9345 C.3     1  UNL1        0.0118
      2 C         138.1759  139.7322  160.6063 C.3     1  UNL1        0.0179
      3 C         137.9337  138.9552  161.8663 C.3     1  UNL1        0.0724
      4 N         139.0313  138.1190  162.4545 N.3     1  UNL1       -0.2689
      5 C         140.3711  138.0597  161.7827 C.3     1  UNL1        0.0724
      6 C         140.6133  138.8367  160.5227 C.3     1  UNL1        0.0179
      7 C         139.7579  140.4499  158.6744 C.3     1  UNL1        0.0851
      8 N         140.5279  142.5304  160.0267 N.am    1  UNL1       -0.2992
      9 C         140.4600  141.7741  158.7331 C.2     1  UNL1        0.2227
     10 O         141.0943  142.3421  157.4981 O.2     1  UNL1       -0.2751
     11 H         140.1116  142.1576  160.8373 H       1  UNL1        0.1498
     12 C         141.2300  143.8546  160.0854 C.3     1  UNL1        0.1337
     13 C         144.1982  143.1274  161.2299 C.3     1  UNL1        0.1302
     14 N         143.1825  144.0007  161.9050 N.ar    1  UNL1       -0.3260
     15 C         143.3529  144.6930  163.2247 C.ar    1  UNL1        0.0758
     16 C         142.0937  145.4552  163.5143 C.ar    1  UNL1        0.0199
     17 C         141.1453  145.2339  162.3735 C.ar    1  UNL1        0.0160
     18 C         141.8182  144.3349  161.3789 C.ar    1  UNL1        0.0571
     19 C         138.7891  137.3420  163.7146 C.3     1  UNL1        0.1007
     20 C         138.8589  138.0306  165.0453 C.ar    1  UNL1        0.0129
     21 C         137.8412  137.9329  166.1430 C.ar    1  UNL1        0.0176
     22 C         138.3119  138.7796  167.2882 C.ar    1  UNL1        0.0799
     23 N         139.6206  139.4006  166.8983 N.ar    1  UNL1       -0.3038
     24 C         139.9586  138.9376  165.5122 C.ar    1  UNL1        0.0772
     25 C         140.4462  140.3225  167.7458 C.ar    1  UNL1        0.0640
     26 C         141.8783  140.5890  167.3882 C.ar    1  UNL1        0.0175
     27 C         142.7039  141.5110  168.2357 C.ar    1  UNL1        0.0053
     28 C         142.0975  142.1665  169.4408 C.ar    1  UNL1        0.0715
     29 C         140.6653  141.9001  169.7985 C.ar    1  UNL1        0.0053
     30 C         139.8397  140.9781  168.9510 C.ar    1  UNL1        0.0175
     31 C         142.9231  143.0885  170.2883 C.3     1  UNL1        0.4186
     32 F         143.7488  144.0104  171.1358 F       1  UNL1       -0.1659
     33 F         141.7595  144.0285  170.3993 F       1  UNL1       -0.1659
     34 F         144.0868  142.1484  170.1774 F       1  UNL1       -0.1659
@<TRIPOS>BOND
     1    13    14    1
     2    14    15   ar
     3    15    16   ar
     4    16    17   ar
     5    17    18   ar
     6    18    12    1
     7    12     8    1
     8     8     9   am
     9     9    10    2
    10     9     7    1
    11     7     1    1
    12     1     2    1
    13     2     3    1
    14     3     4    1
    15     4    19    1
    16    19    20    1
    17    20    21   ar
    18    21    22   ar
    19    22    23   ar
    20    23    25    1
    21    25    26   ar
    22    26    27   ar
    23    27    28   ar
    24    28    31    1
    25    31    32    1
    26    31    33    1
    27    31    34    1
    28    28    29   ar
    29    29    30   ar
    30    23    24   ar
    31     4     5    1
    32     5     6    1
    33    18    14   ar
    34     6     1    1
    35    24    20   ar
    36    30    25   ar
    37     8    11    1
@<TRIPOS>MOLECULE
*****
 34 37 0 0 0
SMALL
GASTEIGER

@<TRIPOS>ATOM
      1 C         139.7286  137.9217  162.0275 C.3     1  UNL1        0.0118
      2 C         139.0907  138.3098  160.7266 C.3     1  UNL1        0.0179
      3 C         139.9472  138.6318  159.5380 C.3     1  UNL1        0.0724
      4 N         141.4415  138.5656  159.6503 N.3     1  UNL1       -0.2689
      5 C         142.0793  138.1775  160.9512 C.3     1  UNL1        0.0724
      6 C         141.2229  137.8555  162.1398 C.3     1  UNL1        0.0179
      7 C         138.8721  137.5997  163.2162 C.3     1  UNL1        0.0851
      8 N         138.7614  138.1904  165.7438 N.am    1  UNL1       -0.2992
      9 C         138.6905  138.6137  164.3064 C.2     1  UNL1        0.2227
     10 O         138.4380  140.0510  163.9595 O.2     1  UNL1       -0.2751
     11 H         138.9271  137.2471  165.9715 H       1  UNL1        0.1498
     12 C         138.5798  139.2044  166.8341 C.3     1  UNL1        0.1337
     13 C         138.8523  140.3292  169.8853 C.3     1  UNL1        0.1302
     14 N         139.8981  140.4234  168.8142 N.ar    1  UNL1       -0.3260
     15 C         141.2529  141.0512  168.9575 C.ar    1  UNL1        0.0758
     16 C         141.9649  140.9222  167.6436 C.ar    1  UNL1        0.0199
     17 C         141.0502  140.2147  166.6882 C.ar    1  UNL1        0.0160
     18 C         139.7729  139.9064  167.4117 C.ar    1  UNL1        0.0571
     19 C         142.2979  138.8876  158.4617 C.3     1  UNL1        0.1007
     20 C         142.7354  137.7931  157.5339 C.ar    1  UNL1        0.0129
     21 C         143.0744  137.9516  156.0814 C.ar    1  UNL1        0.0176
     22 C         143.4592  136.6044  155.5456 C.ar    1  UNL1        0.0799
     23 N         143.3580  135.6133  156.6670 N.ar    1  UNL1       -0.3038
     24 C         142.9107  136.3480  157.8959 C.ar    1  UNL1        0.0772
     25 C         143.6525  134.1454  156.5756 C.ar    1  UNL1        0.0640
     26 C         144.3075  133.4388  157.7252 C.ar    1  UNL1        0.0175
     27 C         144.6019  131.9709  157.6338 C.ar    1  UNL1        0.0053
     28 C         144.2414  131.2095  156.3928 C.ar    1  UNL1        0.0715
     29 C         143.5864  131.9160  155.2431 C.ar    1  UNL1        0.0053
     30 C         143.2919  133.3840  155.3345 C.ar    1  UNL1        0.0175
     31 C         144.5358  129.7415  156.3014 C.3     1  UNL1        0.4186
     32 F         144.8302  128.2735  156.2100 F       1  UNL1       -0.1659
     33 F         145.3353  129.9795  155.0547 F       1  UNL1       -0.1659
     34 F         143.7363  129.5035  157.5481 F       1  UNL1       -0.1659
@<TRIPOS>BOND
     1    13    14    1
     2    14    15   ar
     3    15    16   ar
     4    16    17   ar
     5    17    18   ar
     6    18    12    1
     7    12     8    1
     8     8     9   am
     9     9    10    2
    10     9     7    1
    11     7     1    1
    12     1     2    1
    13     2     3    1
    14     3     4    1
    15     4    19    1
    16    19    20    1
    17    20    21   ar
    18    21    22   ar
    19    22    23   ar
    20    23    25    1
    21    25    26   ar
    22    26    27   ar
    23    27    28   ar
    24    28    31    1
    25    31    32    1
    26    31    33    1
    27    31    34    1
    28    28    29   ar
    29    29    30   ar
    30    23    24   ar
    31     4     5    1
    32     5     6    1
    33    18    14   ar
    34     6     1    1
    35    24    20   ar
    36    30    25   ar
    37     8    11    1
@<TRIPOS>MOLECULE
*****
 34 37 0 0 0
SMALL
GASTEIGER

@<TRIPOS>ATOM
      1 C         141.4125  137.8025  162.7622 C.3     1  UNL1        0.0118
      2 C         140.2443  137.9681  161.8359 C.3     1  UNL1        0.0179
      3 C         140.4744  138.2840  160.3878 C.3     1  UNL1        0.0724
      4 N         141.8726  138.4344  159.8658 N.3     1  UNL1       -0.2689
      5 C         143.0407  138.2688  160.7921 C.3     1  UNL1        0.0724
      6 C         142.8107  137.9529  162.2402 C.3     1  UNL1        0.0179
      7 C         141.1825  137.4865  164.2104 C.3     1  UNL1        0.0851
      8 N         140.9551  139.5540  165.7674 N.am    1  UNL1       -0.2992
      9 C         141.7491  138.3815  165.2725 C.2     1  UNL1        0.2227
     10 O         143.1097  138.1039  165.8396 O.2     1  UNL1       -0.2751
     11 H         140.0621  139.7361  165.3951 H       1  UNL1        0.1498
     12 C         141.5218  140.4489  166.8294 C.3     1  UNL1        0.1337
     13 C         142.3474  142.5219  169.2106 C.3     1  UNL1        0.1302
     14 N         141.1381  141.6346  169.1941 N.ar    1  UNL1       -0.3260
     15 C         140.0960  141.5444  170.2692 C.ar    1  UNL1        0.0758
     16 C         139.0724  140.5357  169.8391 C.ar    1  UNL1        0.0199
     17 C         139.4819  140.0026  168.4982 C.ar    1  UNL1        0.0160
     18 C         140.7586  140.6817  168.0996 C.ar    1  UNL1        0.0571
     19 C         142.1026  138.7503  158.4176 C.3     1  UNL1        0.1007
     20 C         142.6954  137.7146  157.5090 C.ar    1  UNL1        0.0129
     21 C         143.2836  137.9649  156.1520 C.ar    1  UNL1        0.0176
     22 C         143.7559  136.6517  155.6021 C.ar    1  UNL1        0.0799
     23 N         143.4597  135.5897  156.6193 N.ar    1  UNL1       -0.3038
     24 C         142.8042  136.2467  157.7977 C.ar    1  UNL1        0.0772
     25 C         143.7652  134.1276  156.4820 C.ar    1  UNL1        0.0640
     26 C         143.4155  133.4040  155.2155 C.ar    1  UNL1        0.0175
     27 C         143.7211  131.9419  155.0782 C.ar    1  UNL1        0.0053
     28 C         144.3762  131.2034  156.2075 C.ar    1  UNL1        0.0715
     29 C         144.7259  131.9269  157.4740 C.ar    1  UNL1        0.0053
     30 C         144.4203  133.3890  157.6113 C.ar    1  UNL1        0.0175
     31 C         144.6817  129.7413  156.0702 C.3     1  UNL1        0.4186
     32 F         144.9872  128.2791  155.9330 F       1  UNL1       -0.1659
     33 F         144.9828  129.9409  154.6144 F       1  UNL1       -0.1659
     34 F         144.3806  129.5416  157.5261 F       1  UNL1       -0.1659
@<TRIPOS>BOND
     1    13    14    1
     2    14    15   ar
     3    15    16   ar
     4    16    17   ar
     5    17    18   ar
     6    18    12    1
     7    12     8    1
     8     8     9   am
     9     9    10    2
    10     9     7    1
    11     7     1    1
    12     1     2    1
    13     2     3    1
    14     3     4    1
    15     4    19    1
    16    19    20    1
    17    20    21   ar
    18    21    22   ar
    19    22    23   ar
    20    23    25    1
    21    25    26   ar
    22    26    27   ar
    23    27    28   ar
    24    28    31    1
    25    31    32    1
    26    31    33    1
    27    31    34    1
    28    28    29   ar
    29    29    30   ar
    30    23    24   ar
    31     4     5    1
    32     5     6    1
    33    18    14   ar
    34     6     1    1
    35    24    20   ar
    36    30    25   ar
    37     8    11    1
@<TRIPOS>MOLECULE
*****
 34 37 0 0 0
SMALL
GASTEIGER

@<TRIPOS>ATOM
      1 C         141.6575  138.7425  160.0741 C.3     1  UNL1        0.0118
      2 C         142.3462  138.0460  161.2101 C.3     1  UNL1        0.0179
      3 C         141.5512  137.5657  162.3878 C.3     1  UNL1        0.0724
      4 N         140.0674  137.7818  162.4296 N.3     1  UNL1       -0.2689
      5 C         139.3787  138.4783  161.2936 C.3     1  UNL1        0.0724
      6 C         140.1737  138.9587  160.1158 C.3     1  UNL1        0.0179
      7 C         142.4525  139.2229  158.8963 C.3     1  UNL1        0.0851
      8 N         141.3675  137.4843  157.2993 N.am    1  UNL1       -0.2992
      9 C         142.5026  138.4037  157.6408 C.2     1  UNL1        0.2227
     10 O         143.6877  138.5038  156.7267 O.2     1  UNL1       -0.2751
     11 H         140.5897  137.4186  157.8992 H       1  UNL1        0.1498
     12 C         141.4176  136.6651  156.0438 C.3     1  UNL1        0.1337
     13 C         141.6999  135.9513  152.8720 C.3     1  UNL1        0.1302
     14 N         140.4733  136.4864  153.5496 N.ar    1  UNL1       -0.3260
     15 C         139.1610  136.7873  152.8882 C.ar    1  UNL1        0.0758
     16 C         138.2202  137.3014  153.9374 C.ar    1  UNL1        0.0199
     17 C         138.9511  137.3182  155.2471 C.ar    1  UNL1        0.0160
     18 C         140.3435  136.8145  155.0075 C.ar    1  UNL1        0.0571
     19 C         139.2724  137.3014  163.6074 C.3     1  UNL1        0.1007
     20 C         139.2386  138.1107  164.8699 C.ar    1  UNL1        0.0129
     21 C         138.0650  138.2563  165.7926 C.ar    1  UNL1        0.0176
     22 C         138.4735  139.1521  166.9243 C.ar    1  UNL1        0.0799
     23 N         139.8996  139.5601  166.7009 N.ar    1  UNL1       -0.3038
     24 C         140.3724  138.9165  165.4312 C.ar    1  UNL1        0.0772
     25 C         140.7105  140.4547  167.5910 C.ar    1  UNL1        0.0640
     26 C         142.1894  140.5843  167.3773 C.ar    1  UNL1        0.0175
     27 C         143.0003  141.4789  168.2674 C.ar    1  UNL1        0.0053
     28 C         142.3322  142.2438  169.3712 C.ar    1  UNL1        0.0715
     29 C         140.8532  142.1142  169.5849 C.ar    1  UNL1        0.0053
     30 C         140.0423  141.2196  168.6949 C.ar    1  UNL1        0.0175
     31 C         143.1430  143.1384  170.2612 C.3     1  UNL1        0.4186
     32 F         143.9540  144.0329  171.1513 F       1  UNL1       -0.1659
     33 F         141.9634  144.0514  170.4182 F       1  UNL1       -0.1659
     34 F         144.3228  142.2253  170.1042 F       1  UNL1       -0.1659
@<TRIPOS>BOND
     1    13    14    1
     2    14    15   ar
     3    15    16   ar
     4    16    17   ar
     5    17    18   ar
     6    18    12    1
     7    12     8    1
     8     8     9   am
     9     9    10    2
    10     9     7    1
    11     7     1    1
    12     1     2    1
    13     2     3    1
    14     3     4    1
    15     4    19    1
    16    19    20    1
    17    20    21   ar
    18    21    22   ar
    19    22    23   ar
    20    23    25    1
    21    25    26   ar
    22    26    27   ar
    23    27    28   ar
    24    28    31    1
    25    31    32    1
    26    31    33    1
    27    31    34    1
    28    28    29   ar
    29    29    30   ar
    30    23    24   ar
    31     4     5    1
    32     5     6    1
    33    18    14   ar
    34     6     1    1
    35    24    20   ar
    36    30    25   ar
    37     8    11    1
