@<TRIPOS>MOLECULE
*****
 34 38 0 0 0
SMALL
GASTEIGER

@<TRIPOS>ATOM
      1 C         140.9717  139.0179  161.5231 C.ar    1  UNL1       -0.0224
      2 C         142.2782  138.2919  161.3961 C.ar    1  UNL1       -0.0030
      3 C         143.0605  138.3734  160.1189 C.ar    1  UNL1        0.0146
      4 C         142.5362  139.1808  158.9685 C.ar    1  UNL1        0.0542
      5 C         141.2297  139.9067  159.0954 C.ar    1  UNL1        0.0146
      6 C         140.4474  139.8253  160.3727 C.ar    1  UNL1       -0.0030
      7 N         143.3184  139.2622  157.6912 N.am    1  UNL1       -0.2511
      8 C         143.0916  138.1447  156.7167 C.3     1  UNL1        0.1458
      9 C         143.7144  137.9393  155.3676 C.3     1  UNL1        0.2289
     10 O         144.7178  138.8009  154.6599 O.3     1  UNL1       -0.4581
     11 C         145.3462  140.0805  155.1263 C.ar    1  UNL1        0.2335
     12 N         146.3040  140.6238  154.1078 N.ar    1  UNL1       -0.1891
     13 C         147.0420  141.9013  154.3787 C.ar    1  UNL1        0.2027
     14 N         146.8222  142.6354  155.6681 N.ar    1  UNL1       -0.2091
     15 C         145.8645  142.0921  156.6867 C.ar    1  UNL1        0.1361
     16 N         145.6447  142.8263  157.9762 N.pl3   1  UNL1       -0.3423
     17 C         145.1265  140.8147  156.4158 C.ar    1  UNL1        0.1380
     18 C         144.2240  140.4505  157.5572 C.2     1  UNL1        0.2601
     19 O         144.2276  141.4001  158.7183 O.2     1  UNL1       -0.2693
     20 H         146.1291  143.6647  158.1540 H       1  UNL1        0.1437
     21 H         145.0161  142.4697  158.6447 H       1  UNL1        0.1437
     22 C         138.6250  138.7735  165.3549 C.3     1  UNL1        0.0093
     23 C         138.4515  139.9518  164.4431 C.3     1  UNL1        0.0008
     24 C         139.2337  140.0332  163.1658 C.3     1  UNL1        0.0044
     25 C         140.1895  138.9364  162.8003 C.3     1  UNL1        0.0223
     26 C         140.3630  137.7581  163.7123 C.3     1  UNL1        0.0044
     27 C         139.5808  137.6766  164.9895 C.3     1  UNL1        0.0008
     28 C         137.8428  138.6920  166.6323 C.3     1  UNL1        0.0880
     29 C         140.8952  141.4161  169.9703 C.3     1  UNL1        0.0773
     30 C         139.7830  140.5754  169.4167 C.ar    1  UNL1        0.1809
     31 N         138.6304  140.0142  170.1955 N.ar    1  UNL1       -0.0606
     32 O         137.7633  139.2404  169.2472 O.2     1  UNL1       -0.3374
     33 C         138.3800  139.3233  167.8824 C.ar    1  UNL1        0.2363
     34 N         139.6283  140.1484  167.9871 N.ar    1  UNL1       -0.1949
@<TRIPOS>BOND
     1    29    30    1
     2    30    31   ar
     3    31    32   ar
     4    32    33   ar
     5    33    28    1
     6    22    28    1
     7    22    23    1
     8    23    24    1
     9    24    25    1
    10    25     1    1
    11     1     2   ar
    12     2     3   ar
    13     3     4   ar
    14     4     7    1
    15     7     8    1
    16     8     9    1
    17     9    10    1
    18    10    11    1
    19    11    12   ar
    20    12    13   ar
    21    13    14   ar
    22    14    15   ar
    23    15    16    1
    24    15    17   ar
    25    17    18    1
    26    18    19    2
    27     4     5   ar
    28     5     6   ar
    29    25    26    1
    30    26    27    1
    31    33    34   ar
    32    34    30   ar
    33    27    22    1
    34     6     1   ar
    35    18     7   am
    36    17    11   ar
    37    16    20    1
    38    16    21    1
@<TRIPOS>MOLECULE
*****
 34 38 0 0 0
SMALL
GASTEIGER

@<TRIPOS>ATOM
      1 C         141.5387  139.6556  162.8950 C.ar    1  UNL1       -0.0224
      2 C         140.8020  140.3084  161.7632 C.ar    1  UNL1       -0.0030
      3 C         141.3327  140.2048  160.3640 C.ar    1  UNL1        0.0146
      4 C         142.6002  139.4483  160.0967 C.ar    1  UNL1        0.0542
      5 C         143.3369  138.7956  161.2286 C.ar    1  UNL1        0.0146
      6 C         142.8062  138.8992  162.6278 C.ar    1  UNL1       -0.0030
      7 N         143.1309  139.3447  158.6976 N.am    1  UNL1       -0.2511
      8 C         142.7027  138.1308  157.9274 C.3     1  UNL1        0.1458
      9 C         143.0575  137.7410  156.5230 C.3     1  UNL1        0.2289
     10 O         143.9281  138.4689  155.5421 O.3     1  UNL1       -0.4581
     11 C         144.6589  139.7663  155.7231 C.ar    1  UNL1        0.2335
     12 N         145.4199  140.1438  154.4869 N.ar    1  UNL1       -0.1891
     13 C         146.2216  141.4112  154.4574 C.ar    1  UNL1        0.2027
     14 N         146.2623  142.3011  155.6642 N.ar    1  UNL1       -0.2091
     15 C         145.5013  141.9236  156.9005 C.ar    1  UNL1        0.1361
     16 N         145.5421  142.8135  158.1073 N.pl3   1  UNL1       -0.3423
     17 C         144.6996  140.6562  156.9299 C.ar    1  UNL1        0.1380
     18 C         144.0196  140.4685  158.2537 C.2     1  UNL1        0.2601
     19 O         144.2600  141.5475  159.2676 O.2     1  UNL1       -0.2693
     20 H         146.0683  143.6454  158.0879 H       1  UNL1        0.1437
     21 H         145.0426  142.5658  158.9187 H       1  UNL1        0.1437
     22 C         139.9465  139.9666  167.0924 C.3     1  UNL1        0.0093
     23 C         139.0782  140.3489  165.9306 C.3     1  UNL1        0.0008
     24 C         139.6089  140.2452  164.5315 C.3     1  UNL1        0.0044
     25 C         141.0080  139.7593  164.2941 C.3     1  UNL1        0.0223
     26 C         141.8764  139.3770  165.4560 C.3     1  UNL1        0.0044
     27 C         141.3457  139.4807  166.8551 C.3     1  UNL1        0.0008
     28 C         139.4159  140.0702  168.4916 C.3     1  UNL1        0.0880
     29 C         142.8949  143.3402  170.7463 C.3     1  UNL1        0.0773
     30 C         141.7182  142.4342  170.5351 C.ar    1  UNL1        0.1809
     31 N         140.6844  142.0778  171.5617 N.ar    1  UNL1       -0.0606
     32 O         139.6961  141.1489  170.9212 O.2     1  UNL1       -0.3374
     33 C         140.1191  140.9312  169.4986 C.ar    1  UNL1        0.2363
     34 N         141.3689  141.7256  169.2600 N.ar    1  UNL1       -0.1949
@<TRIPOS>BOND
     1    29    30    1
     2    30    31   ar
     3    31    32   ar
     4    32    33   ar
     5    33    28    1
     6    22    28    1
     7    22    23    1
     8    23    24    1
     9    24    25    1
    10    25     1    1
    11     1     2   ar
    12     2     3   ar
    13     3     4   ar
    14     4     7    1
    15     7     8    1
    16     8     9    1
    17     9    10    1
    18    10    11    1
    19    11    12   ar
    20    12    13   ar
    21    13    14   ar
    22    14    15   ar
    23    15    16    1
    24    15    17   ar
    25    17    18    1
    26    18    19    2
    27     4     5   ar
    28     5     6   ar
    29    25    26    1
    30    26    27    1
    31    33    34   ar
    32    34    30   ar
    33    27    22    1
    34     6     1   ar
    35    18     7   am
    36    17    11   ar
    37    16    20    1
    38    16    21    1
@<TRIPOS>MOLECULE
*****
 34 38 0 0 0
SMALL
GASTEIGER

@<TRIPOS>ATOM
      1 C         140.6099  138.6609  161.5791 C.ar    1  UNL1       -0.0224
      2 C         141.0183  137.6454  162.6048 C.ar    1  UNL1       -0.0030
      3 C         140.6547  137.8471  164.0461 C.ar    1  UNL1        0.0146
      4 C         139.8828  139.0643  164.4616 C.ar    1  UNL1        0.0542
      5 C         139.4744  140.0797  163.4359 C.ar    1  UNL1        0.0146
      6 C         139.8379  139.8781  161.9947 C.ar    1  UNL1       -0.0030
      7 N         139.5192  139.2659  165.9028 N.am    1  UNL1       -0.2511
      8 C         138.2138  138.6665  166.3348 C.3     1  UNL1        0.1458
      9 C         137.5758  138.6935  167.6921 C.3     1  UNL1        0.2289
     10 O         138.0858  139.3265  168.9527 O.3     1  UNL1       -0.4581
     11 C         139.3597  140.0890  169.1674 C.ar    1  UNL1        0.2335
     12 N         139.4866  140.5552  170.5874 N.ar    1  UNL1       -0.1891
     13 C         140.6920  141.3392  171.0145 C.ar    1  UNL1        0.2027
     14 N         141.7705  141.6568  170.0215 N.ar    1  UNL1       -0.2091
     15 C         141.6435  141.1906  168.6015 C.ar    1  UNL1        0.1361
     16 N         142.7220  141.5083  167.6085 N.pl3   1  UNL1       -0.3423
     17 C         140.4381  140.4066  168.1745 C.ar    1  UNL1        0.1380
     18 C         140.5091  140.0403  166.7216 C.2     1  UNL1        0.2601
     19 O         141.7317  140.5107  165.9908 O.2     1  UNL1       -0.2693
     20 H         143.5132  142.0228  167.8888 H       1  UNL1        0.1437
     21 H         142.6387  141.2022  166.6765 H       1  UNL1        0.1437
     22 C         141.7006  138.0559  157.2555 C.3     1  UNL1        0.0093
     23 C         140.3043  138.4583  157.6275 C.3     1  UNL1        0.0008
     24 C         139.9408  138.6600  159.0687 C.3     1  UNL1        0.0044
     25 C         140.9735  138.4592  160.1380 C.3     1  UNL1        0.0223
     26 C         142.3698  138.0568  159.7659 C.3     1  UNL1        0.0044
     27 C         142.7334  137.8551  158.3247 C.3     1  UNL1        0.0008
     28 C         142.0642  137.8542  155.8142 C.3     1  UNL1        0.0880
     29 C         141.5626  132.6257  155.2742 C.3     1  UNL1        0.0773
     30 C         141.8445  134.0696  154.9814 C.ar    1  UNL1        0.1809
     31 N         142.3390  134.6248  153.6786 N.ar    1  UNL1       -0.0606
     32 O         142.4815  136.1101  153.8321 O.2     1  UNL1       -0.3374
     33 C         142.0751  136.4729  155.2296 C.ar    1  UNL1        0.2363
     34 N         141.6814  135.2118  155.9399 N.ar    1  UNL1       -0.1949
@<TRIPOS>BOND
     1    29    30    1
     2    30    31   ar
     3    31    32   ar
     4    32    33   ar
     5    33    28    1
     6    22    28    1
     7    22    23    1
     8    23    24    1
     9    24    25    1
    10    25     1    1
    11     1     2   ar
    12     2     3   ar
    13     3     4   ar
    14     4     7    1
    15     7     8    1
    16     8     9    1
    17     9    10    1
    18    10    11    1
    19    11    12   ar
    20    12    13   ar
    21    13    14   ar
    22    14    15   ar
    23    15    16    1
    24    15    17   ar
    25    17    18    1
    26    18    19    2
    27     4     5   ar
    28     5     6   ar
    29    25    26    1
    30    26    27    1
    31    33    34   ar
    32    34    30   ar
    33    27    22    1
    34     6     1   ar
    35    18     7   am
    36    17    11   ar
    37    16    20    1
    38    16    21    1
@<TRIPOS>MOLECULE
*****
 34 38 0 0 0
SMALL
GASTEIGER

@<TRIPOS>ATOM
      1 C         139.7384  142.8973  161.2264 C.ar    1  UNL1       -0.0224
      2 C         138.9299  143.5622  162.3006 C.ar    1  UNL1       -0.0030
      3 C         138.7927  142.9136  163.6462 C.ar    1  UNL1        0.0146
      4 C         139.4643  141.5999  163.9175 C.ar    1  UNL1        0.0542
      5 C         140.2729  140.9350  162.8432 C.ar    1  UNL1        0.0146
      6 C         140.4100  141.5836  161.4976 C.ar    1  UNL1       -0.0030
      7 N         139.3272  140.9513  165.2629 N.am    1  UNL1       -0.2511
      8 C         138.2458  139.9185  165.3805 C.3     1  UNL1        0.1458
      9 C         137.8597  139.1005  166.5771 C.3     1  UNL1        0.2289
     10 O         138.4598  139.1134  167.9517 O.3     1  UNL1       -0.4581
     11 C         139.5941  139.9473  168.4694 C.ar    1  UNL1        0.2335
     12 N         139.8809  139.6482  169.9110 N.ar    1  UNL1       -0.1891
     13 C         140.9821  140.3761  170.6233 C.ar    1  UNL1        0.2027
     14 N         141.7965  141.4032  169.8940 N.ar    1  UNL1       -0.2091
     15 C         141.5097  141.7024  168.4524 C.ar    1  UNL1        0.1361
     16 N         142.3241  142.7295  167.7232 N.pl3   1  UNL1       -0.3423
     17 C         140.4085  140.9744  167.7401 C.ar    1  UNL1        0.1380
     18 C         140.2897  141.4212  166.3131 C.2     1  UNL1        0.2601
     19 O         141.2620  142.4776  165.8789 O.2     1  UNL1       -0.2693
     20 H         143.0468  143.2072  168.1907 H       1  UNL1        0.1437
     21 H         142.1358  142.9258  166.7770 H       1  UNL1        0.1437
     22 C         140.1496  144.8432  157.1898 C.3     1  UNL1        0.0093
     23 C         139.4071  143.5469  157.3254 C.3     1  UNL1        0.0008
     24 C         139.2701  142.8983  158.6708 C.3     1  UNL1        0.0044
     25 C         139.8755  143.5459  159.8809 C.3     1  UNL1        0.0223
     26 C         140.6180  144.8422  159.7453 C.3     1  UNL1        0.0044
     27 C         140.7551  145.4909  158.3998 C.3     1  UNL1        0.0008
     28 C         140.2867  145.4919  155.8443 C.3     1  UNL1        0.0880
     29 C         139.5992  150.3122  153.8017 C.3     1  UNL1        0.0773
     30 C         139.4946  149.1150  154.6993 C.ar    1  UNL1        0.1809
     31 N         138.6613  149.0152  155.9426 N.ar    1  UNL1       -0.0606
     32 O         138.8567  147.6459  156.5228 O.2     1  UNL1       -0.3374
     33 C         139.8106  146.8993  155.6381 C.ar    1  UNL1        0.2363
     34 N         140.2049  147.8073  154.5112 N.ar    1  UNL1       -0.1949
@<TRIPOS>BOND
     1    29    30    1
     2    30    31   ar
     3    31    32   ar
     4    32    33   ar
     5    33    28    1
     6    22    28    1
     7    22    23    1
     8    23    24    1
     9    24    25    1
    10    25     1    1
    11     1     2   ar
    12     2     3   ar
    13     3     4   ar
    14     4     7    1
    15     7     8    1
    16     8     9    1
    17     9    10    1
    18    10    11    1
    19    11    12   ar
    20    12    13   ar
    21    13    14   ar
    22    14    15   ar
    23    15    16    1
    24    15    17   ar
    25    17    18    1
    26    18    19    2
    27     4     5   ar
    28     5     6   ar
    29    25    26    1
    30    26    27    1
    31    33    34   ar
    32    34    30   ar
    33    27    22    1
    34     6     1   ar
    35    18     7   am
    36    17    11   ar
    37    16    20    1
    38    16    21    1
@<TRIPOS>MOLECULE
*****
 34 38 0 0 0
SMALL
GASTEIGER

@<TRIPOS>ATOM
      1 C         142.4611  140.9812  161.6388 C.ar    1  UNL1       -0.0224
      2 C         142.7887  139.7402  162.4150 C.ar    1  UNL1       -0.0030
      3 C         142.1254  139.4848  163.7360 C.ar    1  UNL1        0.0146
      4 C         141.1345  140.4705  164.2806 C.ar    1  UNL1        0.0542
      5 C         140.8070  141.7115  163.5044 C.ar    1  UNL1        0.0146
      6 C         141.4703  141.9669  162.1834 C.ar    1  UNL1       -0.0030
      7 N         140.4712  140.2152  165.6015 N.am    1  UNL1       -0.2511
      8 C         139.1645  139.4810  165.5425 C.3     1  UNL1        0.1458
      9 C         138.2661  139.0780  166.6741 C.3     1  UNL1        0.2289
     10 O         138.4526  139.3098  168.1443 O.3     1  UNL1       -0.4581
     11 C         139.5835  140.0018  168.8460 C.ar    1  UNL1        0.2335
     12 N         139.3792  140.0169  170.3319 N.ar    1  UNL1       -0.1891
     13 C         140.3986  140.6630  171.2226 C.ar    1  UNL1        0.2027
     14 N         141.6223  141.2940  170.6273 N.ar    1  UNL1       -0.2091
     15 C         141.8266  141.2790  169.1414 C.ar    1  UNL1        0.1361
     16 N         143.0503  141.9100  168.5462 N.pl3   1  UNL1       -0.3423
     17 C         140.8072  140.6328  168.2508 C.ar    1  UNL1        0.1380
     18 C         141.2022  140.7278  166.8068 C.2     1  UNL1        0.2601
     19 O         142.5000  141.4280  166.5318 O.2     1  UNL1       -0.2693
     20 H         143.7194  142.3341  169.1308 H       1  UNL1        0.1437
     21 H         143.1844  141.9001  167.5709 H       1  UNL1        0.1437
     22 C         144.4511  141.7472  157.6761 C.3     1  UNL1        0.0093
     23 C         144.1588  140.3412  158.1091 C.3     1  UNL1        0.0008
     24 C         143.4955  140.0859  159.4300 C.3     1  UNL1        0.0044
     25 C         143.1244  141.2366  160.3179 C.3     1  UNL1        0.0223
     26 C         143.4168  142.6427  159.8848 C.3     1  UNL1        0.0044
     27 C         144.0801  142.8980  158.5639 C.3     1  UNL1        0.0008
     28 C         145.1144  142.0027  156.3551 C.3     1  UNL1        0.0880
     29 C         150.0679  141.4195  154.6222 C.3     1  UNL1        0.0773
     30 C         148.8875  141.7923  155.4694 C.ar    1  UNL1        0.1809
     31 N         148.9387  142.5058  156.7878 N.ar    1  UNL1       -0.0606
     32 O         147.5315  142.6714  157.2801 O.2     1  UNL1       -0.3374
     33 C         146.6106  142.0603  156.2659 C.ar    1  UNL1        0.2363
     34 N         147.4487  141.5169  155.1468 N.ar    1  UNL1       -0.1949
@<TRIPOS>BOND
     1    29    30    1
     2    30    31   ar
     3    31    32   ar
     4    32    33   ar
     5    33    28    1
     6    22    28    1
     7    22    23    1
     8    23    24    1
     9    24    25    1
    10    25     1    1
    11     1     2   ar
    12     2     3   ar
    13     3     4   ar
    14     4     7    1
    15     7     8    1
    16     8     9    1
    17     9    10    1
    18    10    11    1
    19    11    12   ar
    20    12    13   ar
    21    13    14   ar
    22    14    15   ar
    23    15    16    1
    24    15    17   ar
    25    17    18    1
    26    18    19    2
    27     4     5   ar
    28     5     6   ar
    29    25    26    1
    30    26    27    1
    31    33    34   ar
    32    34    30   ar
    33    27    22    1
    34     6     1   ar
    35    18     7   am
    36    17    11   ar
    37    16    20    1
    38    16    21    1
@<TRIPOS>MOLECULE
*****
 34 38 0 0 0
SMALL
GASTEIGER

@<TRIPOS>ATOM
      1 C         139.7973  139.3181  163.1911 C.ar    1  UNL1       -0.0224
      2 C         140.6083  140.3322  162.4402 C.ar    1  UNL1       -0.0030
      3 C         140.8073  140.1868  160.9606 C.ar    1  UNL1        0.0146
      4 C         140.1951  139.0273  160.2319 C.ar    1  UNL1        0.0542
      5 C         139.3841  138.0133  160.9828 C.ar    1  UNL1        0.0146
      6 C         139.1851  138.1586  162.4625 C.ar    1  UNL1       -0.0030
      7 N         140.3940  138.8820  158.7523 N.am    1  UNL1       -0.2511
      8 C         141.6773  138.2307  158.3290 C.3     1  UNL1        0.1458
      9 C         142.1669  137.9436  156.9404 C.3     1  UNL1        0.2289
     10 O         141.4940  138.2370  155.6323 O.3     1  UNL1       -0.4581
     11 C         140.1655  138.8899  155.3895 C.ar    1  UNL1        0.2335
     12 N         139.8654  138.9930  153.9235 N.ar    1  UNL1       -0.1891
     13 C         138.5814  139.6169  153.4630 C.ar    1  UNL1        0.2027
     14 N         137.5976  140.1376  154.4685 N.ar    1  UNL1       -0.2091
     15 C         137.8977  140.0345  155.9345 C.ar    1  UNL1        0.1361
     16 N         136.9139  140.5552  156.9399 N.pl3   1  UNL1       -0.3423
     17 C         139.1817  139.4106  156.3950 C.ar    1  UNL1        0.1380
     18 C         139.2835  139.4070  157.8915 C.2     1  UNL1        0.2601
     19 O         138.1208  140.0081  158.6243 O.2     1  UNL1       -0.2693
     20 H         136.0712  140.9646  156.6376 H       1  UNL1        0.1437
     21 H         137.1109  140.4875  157.9021 H       1  UNL1        0.1437
     22 C         139.2006  139.7543  167.6300 C.3     1  UNL1        0.0093
     23 C         138.0776  139.2596  166.7673 C.3     1  UNL1        0.0008
     24 C         138.2765  139.1142  165.2878 C.3     1  UNL1        0.0044
     25 C         139.5984  139.4635  164.6707 C.3     1  UNL1        0.0223
     26 C         140.7214  139.9583  165.5335 C.3     1  UNL1        0.0044
     27 C         140.5225  140.1037  167.0130 C.3     1  UNL1        0.0008
     28 C         139.0017  139.8997  169.1096 C.3     1  UNL1        0.0880
     29 C         142.9189  143.1437  170.5285 C.3     1  UNL1        0.0773
     30 C         141.8145  142.1302  170.5856 C.ar    1  UNL1        0.1809
     31 N         141.3288  141.4239  171.8165 N.ar    1  UNL1       -0.0606
     32 O         140.2160  140.5024  171.4134 O.2     1  UNL1       -0.3374
     33 C         140.0140  140.6392  169.9334 C.ar    1  UNL1        0.2363
     34 N         141.0018  141.6453  169.4218 N.ar    1  UNL1       -0.1949
@<TRIPOS>BOND
     1    29    30    1
     2    30    31   ar
     3    31    32   ar
     4    32    33   ar
     5    33    28    1
     6    22    28    1
     7    22    23    1
     8    23    24    1
     9    24    25    1
    10    25     1    1
    11     1     2   ar
    12     2     3   ar
    13     3     4   ar
    14     4     7    1
    15     7     8    1
    16     8     9    1
    17     9    10    1
    18    10    11    1
    19    11    12   ar
    20    12    13   ar
    21    13    14   ar
    22    14    15   ar
    23    15    16    1
    24    15    17   ar
    25    17    18    1
    26    18    19    2
    27     4     5   ar
    28     5     6   ar
    29    25    26    1
    30    26    27    1
    31    33    34   ar
    32    34    30   ar
    33    27    22    1
    34     6     1   ar
    35    18     7   am
    36    17    11   ar
    37    16    20    1
    38    16    21    1
@<TRIPOS>MOLECULE
*****
 34 38 0 0 0
SMALL
GASTEIGER

@<TRIPOS>ATOM
      1 C         139.0858  140.4611  162.6870 C.ar    1  UNL1       -0.0224
      2 C         137.7817  140.3397  161.9558 C.ar    1  UNL1       -0.0030
      3 C         137.7420  140.4858  160.4635 C.ar    1  UNL1        0.0146
      4 C         139.0065  140.7534  159.7023 C.ar    1  UNL1        0.0542
      5 C         140.3106  140.8749  160.4334 C.ar    1  UNL1        0.0146
      6 C         140.3503  140.7287  161.9257 C.ar    1  UNL1       -0.0030
      7 N         138.9669  140.8995  158.2100 N.am    1  UNL1       -0.2511
      8 C         138.7897  142.2981  157.6974 C.3     1  UNL1        0.1458
      9 C         138.7115  142.7704  156.2758 C.3     1  UNL1        0.2289
     10 O         138.7913  141.9606  155.0157 O.3     1  UNL1       -0.4581
     11 C         138.9688  140.4787  154.8658 C.ar    1  UNL1        0.2335
     12 N         138.9968  140.0734  153.4219 N.ar    1  UNL1       -0.1891
     13 C         139.1665  138.6298  153.0514 C.ar    1  UNL1        0.2027
     14 N         139.3082  137.5916  154.1247 N.ar    1  UNL1       -0.2091
     15 C         139.2802  137.9970  155.5686 C.ar    1  UNL1        0.1361
     16 N         139.4219  136.9588  156.6419 N.pl3   1  UNL1       -0.3423
     17 C         139.1105  139.4405  155.9391 C.ar    1  UNL1        0.1380
     18 C         139.1097  139.6279  157.4274 C.2     1  UNL1        0.2601
     19 O         139.2732  138.3781  158.2407 O.2     1  UNL1       -0.2693
     20 H         139.5333  136.0113  156.3987 H       1  UNL1        0.1437
     21 H         139.4036  137.2248  157.5896 H       1  UNL1        0.1437
     22 C         139.2047  140.0227  167.1639 C.3     1  UNL1        0.0093
     23 C         138.6219  138.9293  166.3185 C.3     1  UNL1        0.0008
     24 C         138.5822  139.0754  164.8262 C.3     1  UNL1        0.0044
     25 C         139.1254  140.3150  164.1792 C.3     1  UNL1        0.0223
     26 C         139.7082  141.4085  165.0248 C.3     1  UNL1        0.0044
     27 C         139.7478  141.2623  166.5170 C.3     1  UNL1        0.0008
     28 C         139.2443  139.8766  168.6563 C.3     1  UNL1        0.0880
     29 C         142.8389  143.1666  170.6898 C.3     1  UNL1        0.0773
     30 C         141.5486  142.4467  170.4311 C.ar    1  UNL1        0.1809
     31 N         140.2511  142.6777  171.1473 N.ar    1  UNL1       -0.0606
     32 O         139.2300  141.7431  170.5697 O.2     1  UNL1       -0.3374
     33 C         139.8964  140.9344  169.4964 C.ar    1  UNL1        0.2363
     34 N         141.3294  141.3693  169.4108 N.ar    1  UNL1       -0.1949
@<TRIPOS>BOND
     1    29    30    1
     2    30    31   ar
     3    31    32   ar
     4    32    33   ar
     5    33    28    1
     6    22    28    1
     7    22    23    1
     8    23    24    1
     9    24    25    1
    10    25     1    1
    11     1     2   ar
    12     2     3   ar
    13     3     4   ar
    14     4     7    1
    15     7     8    1
    16     8     9    1
    17     9    10    1
    18    10    11    1
    19    11    12   ar
    20    12    13   ar
    21    13    14   ar
    22    14    15   ar
    23    15    16    1
    24    15    17   ar
    25    17    18    1
    26    18    19    2
    27     4     5   ar
    28     5     6   ar
    29    25    26    1
    30    26    27    1
    31    33    34   ar
    32    34    30   ar
    33    27    22    1
    34     6     1   ar
    35    18     7   am
    36    17    11   ar
    37    16    20    1
    38    16    21    1
@<TRIPOS>MOLECULE
*****
 34 38 0 0 0
SMALL
GASTEIGER

@<TRIPOS>ATOM
      1 C         138.9076  140.7579  162.5247 C.ar    1  UNL1       -0.0224
      2 C         138.5072  142.1003  161.9885 C.ar    1  UNL1       -0.0030
      3 C         138.4192  142.3205  160.5073 C.ar    1  UNL1        0.0146
      4 C         138.7315  141.1981  159.5624 C.ar    1  UNL1        0.0542
      5 C         139.1319  139.8557  160.0987 C.ar    1  UNL1        0.0146
      6 C         139.2199  139.6355  161.5798 C.ar    1  UNL1       -0.0030
      7 N         138.6435  141.4182  158.0813 N.am    1  UNL1       -0.2511
      8 C         139.8361  142.0718  157.4484 C.3     1  UNL1        0.1458
      9 C         140.0543  142.4242  156.0068 C.3     1  UNL1        0.2289
     10 O         139.1337  142.2101  154.8421 O.3     1  UNL1       -0.4581
     11 C         137.7676  141.5907  154.8312 C.ar    1  UNL1        0.2335
     12 N         137.1866  141.5693  153.4484 N.ar    1  UNL1       -0.1891
     13 C         135.8226  140.9897  153.2170 C.ar    1  UNL1        0.2027
     14 N         135.0397  140.4314  154.3682 N.ar    1  UNL1       -0.2091
     15 C         135.6207  140.4528  155.7509 C.ar    1  UNL1        0.1361
     16 N         134.8378  139.8945  156.9022 N.pl3   1  UNL1       -0.3423
     17 C         136.9846  141.0324  155.9824 C.ar    1  UNL1        0.1380
     18 C         137.3745  140.9557  157.4288 C.2     1  UNL1        0.2601
     19 O         136.3613  140.3342  158.3438 O.2     1  UNL1       -0.2693
     20 H         133.9426  139.5140  156.7502 H       1  UNL1        0.1437
     21 H         135.2191  139.9085  157.8097 H       1  UNL1        0.1437
     22 C         139.1717  140.0975  166.9681 C.3     1  UNL1        0.0093
     23 C         138.3513  139.1717  166.1198 C.3     1  UNL1        0.0008
     24 C         138.2632  139.3918  164.6387 C.3     1  UNL1        0.0044
     25 C         138.9956  140.5378  164.0058 C.3     1  UNL1        0.0223
     26 C         139.8160  141.4637  164.8543 C.3     1  UNL1        0.0044
     27 C         139.9041  141.2435  166.3354 C.3     1  UNL1        0.0008
     28 C         139.2597  139.8775  168.4493 C.3     1  UNL1        0.0880
     29 C         142.7236  143.1806  170.6788 C.3     1  UNL1        0.0773
     30 C         141.4542  142.4503  170.3546 C.ar    1  UNL1        0.1809
     31 N         140.1235  142.6591  171.0148 N.ar    1  UNL1       -0.0606
     32 O         139.1396  141.7207  170.3814 O.2     1  UNL1       -0.3374
     33 C         139.8620  140.9320  169.3298 C.ar    1  UNL1        0.2363
     34 N         141.2925  141.3828  169.3132 N.ar    1  UNL1       -0.1949
@<TRIPOS>BOND
     1    29    30    1
     2    30    31   ar
     3    31    32   ar
     4    32    33   ar
     5    33    28    1
     6    22    28    1
     7    22    23    1
     8    23    24    1
     9    24    25    1
    10    25     1    1
    11     1     2   ar
    12     2     3   ar
    13     3     4   ar
    14     4     7    1
    15     7     8    1
    16     8     9    1
    17     9    10    1
    18    10    11    1
    19    11    12   ar
    20    12    13   ar
    21    13    14   ar
    22    14    15   ar
    23    15    16    1
    24    15    17   ar
    25    17    18    1
    26    18    19    2
    27     4     5   ar
    28     5     6   ar
    29    25    26    1
    30    26    27    1
    31    33    34   ar
    32    34    30   ar
    33    27    22    1
    34     6     1   ar
    35    18     7   am
    36    17    11   ar
    37    16    20    1
    38    16    21    1
@<TRIPOS>MOLECULE
*****
 34 38 0 0 0
SMALL
GASTEIGER

@<TRIPOS>ATOM
      1 C         146.0205  141.3435  156.0227 C.ar    1  UNL1       -0.0224
      2 C         145.6882  142.1359  157.2521 C.ar    1  UNL1       -0.0030
      3 C         144.4477  141.8214  158.0346 C.ar    1  UNL1        0.0146
      4 C         143.5396  140.7143  157.5876 C.ar    1  UNL1        0.0542
      5 C         143.8720  139.9218  156.3582 C.ar    1  UNL1        0.0146
      6 C         145.1124  140.2363  155.5757 C.ar    1  UNL1       -0.0030
      7 N         142.2992  140.3997  158.3701 N.am    1  UNL1       -0.2511
      8 C         141.0537  141.1095  157.9287 C.3     1  UNL1        0.1458
      9 C         139.6696  141.0119  158.4986 C.3     1  UNL1        0.2289
     10 O         139.1893  140.1802  159.6509 O.3     1  UNL1       -0.4581
     11 C         139.9742  139.2409  160.5177 C.ar    1  UNL1        0.2335
     12 N         139.1063  138.6049  161.5628 N.ar    1  UNL1       -0.1891
     13 C         139.6977  137.6292  162.5365 C.ar    1  UNL1        0.2027
     14 N         141.1570  137.2894  162.4652 N.ar    1  UNL1       -0.2091
     15 C         142.0249  137.9254  161.4202 C.ar    1  UNL1        0.1361
     16 N         143.4842  137.5857  161.3488 N.pl3   1  UNL1       -0.3423
     17 C         141.4335  138.9011  160.4464 C.ar    1  UNL1        0.1380
     18 C         142.4682  139.4169  159.4906 C.2     1  UNL1        0.2601
     19 O         143.8553  138.8786  159.6805 O.2     1  UNL1       -0.2693
     20 H         143.8723  136.9453  161.9879 H       1  UNL1        0.1437
     21 H         144.0538  138.0032  160.6629 H       1  UNL1        0.1437
     22 C         149.7419  142.2872  153.6752 C.3     1  UNL1        0.0093
     23 C         149.8272  142.0549  155.1546 C.3     1  UNL1        0.0008
     24 C         148.5867  141.7403  155.9371 C.3     1  UNL1        0.0044
     25 C         147.2610  141.6580  155.2402 C.3     1  UNL1        0.0223
     26 C         147.1758  141.8904  153.7607 C.3     1  UNL1        0.0044
     27 C         148.4162  142.2049  152.9782 C.3     1  UNL1        0.0008
     28 C         150.9824  142.6018  152.8926 C.3     1  UNL1        0.0880
     29 C         154.5212  146.0145  154.8186 C.3     1  UNL1        0.0773
     30 C         153.8101  144.7399  154.4730 C.ar    1  UNL1        0.1809
     31 N         154.2533  143.3551  154.8416 N.ar    1  UNL1       -0.0606
     32 O         153.2480  142.3856  154.2945 O.2     1  UNL1       -0.3374
     33 C         152.1834  143.1712  153.5877 C.ar    1  UNL1        0.2363
     34 N         152.5308  144.6262  153.6981 N.ar    1  UNL1       -0.1949
@<TRIPOS>BOND
     1    29    30    1
     2    30    31   ar
     3    31    32   ar
     4    32    33   ar
     5    33    28    1
     6    22    28    1
     7    22    23    1
     8    23    24    1
     9    24    25    1
    10    25     1    1
    11     1     2   ar
    12     2     3   ar
    13     3     4   ar
    14     4     7    1
    15     7     8    1
    16     8     9    1
    17     9    10    1
    18    10    11    1
    19    11    12   ar
    20    12    13   ar
    21    13    14   ar
    22    14    15   ar
    23    15    16    1
    24    15    17   ar
    25    17    18    1
    26    18    19    2
    27     4     5   ar
    28     5     6   ar
    29    25    26    1
    30    26    27    1
    31    33    34   ar
    32    34    30   ar
    33    27    22    1
    34     6     1   ar
    35    18     7   am
    36    17    11   ar
    37    16    20    1
    38    16    21    1
