@<TRIPOS>MOLECULE
*****
 33 35 0 0 0
SMALL
GASTEIGER

@<TRIPOS>ATOM
      1 C         140.5441  142.3792  165.9602 C.3     1  UNL1        0.1169
      2 C         141.1564  142.5509  167.3187 C.ar    1  UNL1       -0.0003
      3 C         142.5794  142.1410  167.5572 C.ar    1  UNL1       -0.0024
      4 C         143.1918  142.3127  168.9157 C.ar    1  UNL1       -0.0003
      5 C         142.3811  142.8944  170.0357 C.ar    1  UNL1       -0.0000
      6 C         140.9580  143.3043  169.7972 C.ar    1  UNL1       -0.0003
      7 C         140.3457  143.1326  168.4387 C.ar    1  UNL1       -0.0024
      8 C         140.1187  141.0178  165.4959 C.ar    1  UNL1       -0.0004
      9 C         140.6247  140.4785  164.1908 C.ar    1  UNL1       -0.0024
     10 C         140.1993  139.1171  163.7264 C.ar    1  UNL1       -0.0003
     11 C         139.2680  138.2950  164.5672 C.ar    1  UNL1        0.0038
     12 C         138.7621  138.8343  165.8723 C.ar    1  UNL1        0.0712
     13 C         139.1875  140.1957  166.3366 C.ar    1  UNL1        0.0015
     14 C         137.8308  138.0122  166.7130 C.3     1  UNL1        0.4186
     15 F         136.8995  137.1901  167.5538 F       1  UNL1       -0.1659
     16 F         138.1328  136.8085  165.8704 F       1  UNL1       -0.1659
     17 F         137.5289  139.2159  167.5555 F       1  UNL1       -0.1659
     18 O         142.8339  143.3851  164.3034 O.2     1  UNL1       -0.2732
     19 C         141.5020  144.0719  164.2375 C.2     1  UNL1        0.2430
     20 N         140.3571  143.5690  165.0659 N.am    1  UNL1       -0.2972
     21 H         139.4830  144.0198  165.0227 H       1  UNL1        0.1500
     22 C         141.3150  145.2616  163.3434 C.3     1  UNL1        0.1759
     23 N         141.7560  145.1999  161.9109 N.am    1  UNL1       -0.2931
     24 C         140.7369  145.0784  160.8170 C.2     1  UNL1        0.2462
     25 O         139.2768  145.0186  161.1555 O.2     1  UNL1       -0.2701
     26 H         142.7143  145.2391  161.6888 H       1  UNL1        0.1502
     27 C         141.1779  145.0167  159.3846 C.ar    1  UNL1        0.0535
     28 C         142.3011  144.1067  158.9841 C.ar    1  UNL1        0.0068
     29 C         142.7420  144.0451  157.5518 C.ar    1  UNL1        0.0298
     30 C         142.0598  144.8934  156.5198 C.ar    1  UNL1        0.1401
     31 F         142.5008  144.8318  155.0874 F       1  UNL1       -0.2042
     32 C         140.9367  145.8035  156.9203 C.ar    1  UNL1        0.0298
     33 C         140.4958  145.8651  158.3527 C.ar    1  UNL1        0.0068
@<TRIPOS>BOND
     1    18    19    2
     2    19    22    1
     3    22    23    1
     4    23    24   am
     5    24    25    2
     6    24    27    1
     7    27    28   ar
     8    28    29   ar
     9    29    30   ar
    10    30    31    1
    11    30    32   ar
    12    32    33   ar
    13    19    20   am
    14    20     1    1
    15     1     2    1
    16     2     3   ar
    17     3     4   ar
    18     4     5   ar
    19     5     6   ar
    20     6     7   ar
    21     1     8    1
    22     8     9   ar
    23     9    10   ar
    24    10    11   ar
    25    11    12   ar
    26    12    14    1
    27    14    15    1
    28    14    16    1
    29    14    17    1
    30    12    13   ar
    31    33    27   ar
    32     7     2   ar
    33    13     8   ar
    34    23    26    1
    35    20    21    1
@<TRIPOS>MOLECULE
*****
 33 35 0 0 0
SMALL
GASTEIGER

@<TRIPOS>ATOM
      1 C         141.8943  141.5542  166.2912 C.3     1  UNL1        0.1169
      2 C         142.0491  142.0897  167.6837 C.ar    1  UNL1       -0.0003
      3 C         140.8902  142.7561  168.3641 C.ar    1  UNL1       -0.0024
      4 C         141.0449  143.2917  169.7567 C.ar    1  UNL1       -0.0003
      5 C         142.3586  143.1609  170.4689 C.ar    1  UNL1       -0.0000
      6 C         143.5175  142.4944  169.7885 C.ar    1  UNL1       -0.0003
      7 C         143.3627  141.9588  168.3959 C.ar    1  UNL1       -0.0024
      8 C         140.5523  141.0845  165.8131 C.ar    1  UNL1       -0.0004
      9 C         139.7737  141.9114  164.8332 C.ar    1  UNL1       -0.0024
     10 C         138.4318  141.4417  164.3551 C.ar    1  UNL1       -0.0003
     11 C         137.8684  140.1452  164.8569 C.ar    1  UNL1        0.0038
     12 C         138.6470  139.3184  165.8368 C.ar    1  UNL1        0.0712
     13 C         139.9889  139.7881  166.3149 C.ar    1  UNL1        0.0015
     14 C         138.0836  138.0220  166.3385 C.3     1  UNL1        0.4186
     15 F         137.5202  136.7255  166.8403 F       1  UNL1       -0.1659
     16 F         137.3135  138.7638  167.3905 F       1  UNL1       -0.1659
     17 F         138.8537  137.2802  165.2866 F       1  UNL1       -0.1659
     18 O         143.3129  138.9461  165.8604 O.2     1  UNL1       -0.2732
     19 C         143.7908  140.1842  165.1613 C.2     1  UNL1        0.2430
     20 N         143.0815  141.4882  165.3767 N.am    1  UNL1       -0.2972
     21 H         143.3951  142.3008  164.9179 H       1  UNL1        0.1500
     22 C         144.9779  140.1183  164.2469 C.3     1  UNL1        0.1759
     23 N         144.7783  140.0680  162.7610 N.am    1  UNL1       -0.2931
     24 C         144.3706  141.3048  162.0167 C.2     1  UNL1        0.2462
     25 O         144.1626  142.5921  162.7582 O.2     1  UNL1       -0.2701
     26 H         144.9148  139.2232  162.2743 H       1  UNL1        0.1502
     27 C         144.1709  141.2545  160.5309 C.ar    1  UNL1        0.0535
     28 C         144.4551  142.4667  159.6944 C.ar    1  UNL1        0.0068
     29 C         144.2555  142.4163  158.2087 C.ar    1  UNL1        0.0298
     30 C         143.7715  141.1537  157.5593 C.ar    1  UNL1        0.1401
     31 F         143.5719  141.1034  156.0735 F       1  UNL1       -0.2042
     32 C         143.4873  139.9415  158.3958 C.ar    1  UNL1        0.0298
     33 C         143.6870  139.9919  159.8815 C.ar    1  UNL1        0.0068
@<TRIPOS>BOND
     1    18    19    2
     2    19    22    1
     3    22    23    1
     4    23    24   am
     5    24    25    2
     6    24    27    1
     7    27    28   ar
     8    28    29   ar
     9    29    30   ar
    10    30    31    1
    11    30    32   ar
    12    32    33   ar
    13    19    20   am
    14    20     1    1
    15     1     2    1
    16     2     3   ar
    17     3     4   ar
    18     4     5   ar
    19     5     6   ar
    20     6     7   ar
    21     1     8    1
    22     8     9   ar
    23     9    10   ar
    24    10    11   ar
    25    11    12   ar
    26    12    14    1
    27    14    15    1
    28    14    16    1
    29    14    17    1
    30    12    13   ar
    31    33    27   ar
    32     7     2   ar
    33    13     8   ar
    34    23    26    1
    35    20    21    1
@<TRIPOS>MOLECULE
*****
 33 35 0 0 0
SMALL
GASTEIGER

@<TRIPOS>ATOM
      1 C         141.0662  141.7472  165.4544 C.3     1  UNL1        0.1169
      2 C         139.9818  142.5514  164.8008 C.ar    1  UNL1       -0.0003
      3 C         138.6746  141.9039  164.4519 C.ar    1  UNL1       -0.0024
      4 C         137.5900  142.7081  163.7983 C.ar    1  UNL1       -0.0003
      5 C         137.8129  144.1599  163.4936 C.ar    1  UNL1       -0.0000
      6 C         139.1202  144.8074  163.8426 C.ar    1  UNL1       -0.0003
      7 C         140.2046  144.0031  164.4961 C.ar    1  UNL1       -0.0024
      8 C         141.5176  142.0863  166.8441 C.ar    1  UNL1       -0.0004
      9 C         142.9748  142.0260  167.1950 C.ar    1  UNL1       -0.0024
     10 C         143.4261  142.3651  168.5847 C.ar    1  UNL1       -0.0003
     11 C         142.4203  142.7646  169.6235 C.ar    1  UNL1        0.0038
     12 C         140.9632  142.8249  169.2725 C.ar    1  UNL1        0.0712
     13 C         140.5119  142.4857  167.8828 C.ar    1  UNL1        0.0015
     14 C         139.9575  143.2243  170.3112 C.3     1  UNL1        0.4186
     15 F         138.9518  143.6238  171.3499 F       1  UNL1       -0.1659
     16 F         139.5284  141.7934  170.4459 F       1  UNL1       -0.1659
     17 F         140.3867  144.6552  170.1764 F       1  UNL1       -0.1659
     18 O         140.0720  138.9500  165.8873 O.2     1  UNL1       -0.2732
     19 C         141.2022  139.2052  164.9347 C.2     1  UNL1        0.2430
     20 N         141.6993  140.6038  164.7182 N.am    1  UNL1       -0.2972
     21 H         142.4412  140.7712  164.0930 H       1  UNL1        0.1500
     22 C         141.8353  138.0619  164.1986 C.3     1  UNL1        0.1759
     23 N         141.4816  137.8060  162.7635 N.am    1  UNL1       -0.2931
     24 C         142.0788  138.6552  161.6809 C.2     1  UNL1        0.2462
     25 O         143.0297  139.7604  162.0333 O.2     1  UNL1       -0.2701
     26 H         140.8574  137.0806  162.5322 H       1  UNL1        0.1502
     27 C         141.7250  138.3993  160.2458 C.ar    1  UNL1        0.0535
     28 C         140.3299  138.6585  159.7595 C.ar    1  UNL1        0.0068
     29 C         139.9762  138.4025  158.3245 C.ar    1  UNL1        0.0298
     30 C         141.0176  137.8874  157.3757 C.ar    1  UNL1        0.1401
     31 F         140.6639  137.6315  155.9406 F       1  UNL1       -0.2042
     32 C         142.4127  137.6282  157.8620 C.ar    1  UNL1        0.0298
     33 C         142.7664  137.8842  159.2970 C.ar    1  UNL1        0.0068
@<TRIPOS>BOND
     1    18    19    2
     2    19    22    1
     3    22    23    1
     4    23    24   am
     5    24    25    2
     6    24    27    1
     7    27    28   ar
     8    28    29   ar
     9    29    30   ar
    10    30    31    1
    11    30    32   ar
    12    32    33   ar
    13    19    20   am
    14    20     1    1
    15     1     2    1
    16     2     3   ar
    17     3     4   ar
    18     4     5   ar
    19     5     6   ar
    20     6     7   ar
    21     1     8    1
    22     8     9   ar
    23     9    10   ar
    24    10    11   ar
    25    11    12   ar
    26    12    14    1
    27    14    15    1
    28    14    16    1
    29    14    17    1
    30    12    13   ar
    31    33    27   ar
    32     7     2   ar
    33    13     8   ar
    34    23    26    1
    35    20    21    1
@<TRIPOS>MOLECULE
*****
 33 35 0 0 0
SMALL
GASTEIGER

@<TRIPOS>ATOM
      1 C         141.3430  142.1085  165.5399 C.3     1  UNL1        0.1169
      2 C         140.4760  140.9497  165.1460 C.ar    1  UNL1       -0.0003
      3 C         141.0779  139.5862  164.9768 C.ar    1  UNL1       -0.0024
      4 C         140.2109  138.4272  164.5828 C.ar    1  UNL1       -0.0003
      5 C         138.7420  138.6318  164.3581 C.ar    1  UNL1       -0.0000
      6 C         138.1401  139.9953  164.5273 C.ar    1  UNL1       -0.0003
      7 C         139.0071  141.1542  164.9212 C.ar    1  UNL1       -0.0024
      8 C         141.6965  142.3248  166.9816 C.ar    1  UNL1       -0.0004
      9 C         143.1148  142.1554  167.4396 C.ar    1  UNL1       -0.0024
     10 C         143.4683  142.3717  168.8812 C.ar    1  UNL1       -0.0003
     11 C         142.4034  142.7574  169.8648 C.ar    1  UNL1        0.0038
     12 C         140.9851  142.9267  169.4068 C.ar    1  UNL1        0.0712
     13 C         140.6317  142.7105  167.9651 C.ar    1  UNL1        0.0015
     14 C         139.9204  143.3124  170.3903 C.3     1  UNL1        0.4186
     15 F         138.8555  143.6980  171.3740 F       1  UNL1       -0.1659
     16 F         140.2745  144.7583  170.2068 F       1  UNL1       -0.1659
     17 F         139.5662  141.8664  170.5739 F       1  UNL1       -0.1659
     18 O         139.7724  144.5646  164.8322 O.2     1  UNL1       -0.2732
     19 C         141.0713  144.2792  164.1384 C.2     1  UNL1        0.2430
     20 N         141.8566  143.0512  164.4922 N.am    1  UNL1       -0.2972
     21 H         142.7091  142.8639  164.0368 H       1  UNL1        0.1500
     22 C         141.5849  145.2219  163.0907 C.3     1  UNL1        0.1759
     23 N         141.4682  144.8648  161.6384 N.am    1  UNL1       -0.2931
     24 C         140.3079  145.3694  160.8329 C.2     1  UNL1        0.2462
     25 O         139.2642  146.2311  161.4795 O.2     1  UNL1       -0.2701
     26 H         142.1533  144.2993  161.2140 H       1  UNL1        0.1502
     27 C         140.1913  145.0124  159.3806 C.ar    1  UNL1        0.0535
     28 C         139.8664  143.6044  158.9782 C.ar    1  UNL1        0.0068
     29 C         139.7498  143.2475  157.5260 C.ar    1  UNL1        0.0298
     30 C         139.9580  144.2985  156.4762 C.ar    1  UNL1        0.1401
     31 F         139.8414  143.9414  155.0240 F       1  UNL1       -0.2042
     32 C         140.2829  145.7064  156.8787 C.ar    1  UNL1        0.0298
     33 C         140.3995  146.0634  158.3309 C.ar    1  UNL1        0.0068
@<TRIPOS>BOND
     1    18    19    2
     2    19    22    1
     3    22    23    1
     4    23    24   am
     5    24    25    2
     6    24    27    1
     7    27    28   ar
     8    28    29   ar
     9    29    30   ar
    10    30    31    1
    11    30    32   ar
    12    32    33   ar
    13    19    20   am
    14    20     1    1
    15     1     2    1
    16     2     3   ar
    17     3     4   ar
    18     4     5   ar
    19     5     6   ar
    20     6     7   ar
    21     1     8    1
    22     8     9   ar
    23     9    10   ar
    24    10    11   ar
    25    11    12   ar
    26    12    14    1
    27    14    15    1
    28    14    16    1
    29    14    17    1
    30    12    13   ar
    31    33    27   ar
    32     7     2   ar
    33    13     8   ar
    34    23    26    1
    35    20    21    1
@<TRIPOS>MOLECULE
*****
 33 35 0 0 0
SMALL
GASTEIGER

@<TRIPOS>ATOM
      1 C         140.3431  142.5750  166.2551 C.3     1  UNL1        0.1169
      2 C         141.0865  142.6967  167.5522 C.ar    1  UNL1       -0.0003
      3 C         140.4181  143.3141  168.7446 C.ar    1  UNL1       -0.0024
      4 C         141.1615  143.4359  170.0418 C.ar    1  UNL1       -0.0003
      5 C         142.5734  142.9403  170.1464 C.ar    1  UNL1       -0.0000
      6 C         143.2418  142.3228  168.9539 C.ar    1  UNL1       -0.0003
      7 C         142.4984  142.2011  167.6568 C.ar    1  UNL1       -0.0024
      8 C         139.6499  141.2915  165.9056 C.ar    1  UNL1       -0.0004
      9 C         139.4666  140.2298  166.9492 C.ar    1  UNL1       -0.0024
     10 C         138.7733  138.9463  166.5997 C.ar    1  UNL1       -0.0003
     11 C         138.2633  138.7247  165.2065 C.ar    1  UNL1        0.0038
     12 C         138.4466  139.7864  164.1630 C.ar    1  UNL1        0.0712
     13 C         139.1398  141.0699  164.5125 C.ar    1  UNL1        0.0015
     14 C         137.9365  139.5648  162.7699 C.3     1  UNL1        0.4186
     15 F         137.4264  139.3431  161.3768 F       1  UNL1       -0.1659
     16 F         138.5840  138.2119  162.7481 F       1  UNL1       -0.1659
     17 F         137.2891  140.9176  162.7917 F       1  UNL1       -0.1659
     18 O         142.6195  143.0678  164.3642 O.2     1  UNL1       -0.2732
     19 C         141.4311  143.9831  164.3620 C.2     1  UNL1        0.2430
     20 N         140.2930  143.7367  165.3074 N.am    1  UNL1       -0.2972
     21 H         139.5130  144.3375  165.3060 H       1  UNL1        0.1500
     22 C         141.3809  145.1448  163.4145 C.3     1  UNL1        0.1759
     23 N         141.8286  144.9731  161.9931 N.am    1  UNL1       -0.2931
     24 C         140.8497  145.1554  160.8713 C.2     1  UNL1        0.2462
     25 O         139.4231  145.5092  161.1707 O.2     1  UNL1       -0.2701
     26 H         142.7649  144.7409  161.7965 H       1  UNL1        0.1502
     27 C         141.2973  144.9838  159.4499 C.ar    1  UNL1        0.0535
     28 C         142.3415  143.9618  159.1106 C.ar    1  UNL1        0.0068
     29 C         142.7891  143.7902  157.6893 C.ar    1  UNL1        0.0298
     30 C         142.1926  144.6406  156.6073 C.ar    1  UNL1        0.1401
     31 F         142.6402  144.4690  155.1859 F       1  UNL1       -0.2042
     32 C         141.1483  145.6626  156.9465 C.ar    1  UNL1        0.0298
     33 C         140.7007  145.8342  158.3678 C.ar    1  UNL1        0.0068
@<TRIPOS>BOND
     1    18    19    2
     2    19    22    1
     3    22    23    1
     4    23    24   am
     5    24    25    2
     6    24    27    1
     7    27    28   ar
     8    28    29   ar
     9    29    30   ar
    10    30    31    1
    11    30    32   ar
    12    32    33   ar
    13    19    20   am
    14    20     1    1
    15     1     2    1
    16     2     3   ar
    17     3     4   ar
    18     4     5   ar
    19     5     6   ar
    20     6     7   ar
    21     1     8    1
    22     8     9   ar
    23     9    10   ar
    24    10    11   ar
    25    11    12   ar
    26    12    14    1
    27    14    15    1
    28    14    16    1
    29    14    17    1
    30    12    13   ar
    31    33    27   ar
    32     7     2   ar
    33    13     8   ar
    34    23    26    1
    35    20    21    1
@<TRIPOS>MOLECULE
*****
 33 35 0 0 0
SMALL
GASTEIGER

@<TRIPOS>ATOM
      1 C         141.8669  142.0738  165.8124 C.3     1  UNL1        0.1169
      2 C         141.8290  142.4054  167.2747 C.ar    1  UNL1       -0.0003
      3 C         143.0664  142.2573  168.1096 C.ar    1  UNL1       -0.0024
      4 C         143.0285  142.5889  169.5721 C.ar    1  UNL1       -0.0003
      5 C         141.7533  143.0685  170.1996 C.ar    1  UNL1       -0.0000
      6 C         140.5159  143.2166  169.3646 C.ar    1  UNL1       -0.0003
      7 C         140.5538  142.8850  167.9022 C.ar    1  UNL1       -0.0024
      8 C         141.8428  140.6416  165.3672 C.ar    1  UNL1       -0.0004
      9 C         143.0207  139.7526  165.6364 C.ar    1  UNL1       -0.0024
     10 C         142.9966  138.3204  165.1912 C.ar    1  UNL1       -0.0003
     11 C         141.7946  137.7772  164.4768 C.ar    1  UNL1        0.0038
     12 C         140.6169  138.6662  164.2076 C.ar    1  UNL1        0.0712
     13 C         140.6410  140.0984  164.6528 C.ar    1  UNL1        0.0015
     14 C         139.4150  138.1229  163.4932 C.3     1  UNL1        0.4186
     15 F         138.2131  137.5797  162.7788 F       1  UNL1       -0.1659
     16 F         140.3080  137.5180  162.4509 F       1  UNL1       -0.1659
     17 F         138.5220  138.7279  164.5355 F       1  UNL1       -0.1659
     18 O         144.5178  143.2246  165.0070 O.2     1  UNL1       -0.2732
     19 C         143.2543  143.7498  164.3925 C.2     1  UNL1        0.2430
     20 N         141.9289  143.1745  164.7951 N.am    1  UNL1       -0.2972
     21 H         141.0996  143.5192  164.3917 H       1  UNL1        0.1500
     22 C         143.3162  144.8504  163.3752 C.3     1  UNL1        0.1759
     23 N         142.7834  144.6237  161.9915 N.am    1  UNL1       -0.2931
     24 C         141.3140  144.7584  161.7222 C.2     1  UNL1        0.2462
     25 O         140.3773  145.1199  162.8366 O.2     1  UNL1       -0.2701
     26 H         143.3982  144.3864  161.2600 H       1  UNL1        0.1502
     27 C         140.7812  144.5316  160.3384 C.ar    1  UNL1        0.0535
     28 C         141.2430  145.3993  159.2053 C.ar    1  UNL1        0.0068
     29 C         140.7102  145.1725  157.8217 C.ar    1  UNL1        0.0298
     30 C         139.7156  144.0780  157.5710 C.ar    1  UNL1        0.1401
     31 F         139.1828  143.8513  156.1872 F       1  UNL1       -0.2042
     32 C         139.2537  143.2104  158.7040 C.ar    1  UNL1        0.0298
     33 C         139.7865  143.4372  160.0877 C.ar    1  UNL1        0.0068
@<TRIPOS>BOND
     1    18    19    2
     2    19    22    1
     3    22    23    1
     4    23    24   am
     5    24    25    2
     6    24    27    1
     7    27    28   ar
     8    28    29   ar
     9    29    30   ar
    10    30    31    1
    11    30    32   ar
    12    32    33   ar
    13    19    20   am
    14    20     1    1
    15     1     2    1
    16     2     3   ar
    17     3     4   ar
    18     4     5   ar
    19     5     6   ar
    20     6     7   ar
    21     1     8    1
    22     8     9   ar
    23     9    10   ar
    24    10    11   ar
    25    11    12   ar
    26    12    14    1
    27    14    15    1
    28    14    16    1
    29    14    17    1
    30    12    13   ar
    31    33    27   ar
    32     7     2   ar
    33    13     8   ar
    34    23    26    1
    35    20    21    1
@<TRIPOS>MOLECULE
*****
 33 35 0 0 0
SMALL
GASTEIGER

@<TRIPOS>ATOM
      1 C         140.4456  141.4727  166.1939 C.3     1  UNL1        0.1169
      2 C         140.2181  141.6130  167.6698 C.ar    1  UNL1       -0.0003
      3 C         139.6402  140.4706  168.4515 C.ar    1  UNL1       -0.0024
      4 C         139.4127  140.6108  169.9275 C.ar    1  UNL1       -0.0003
      5 C         139.7631  141.8934  170.6219 C.ar    1  UNL1       -0.0000
      6 C         140.3410  143.0358  169.8402 C.ar    1  UNL1       -0.0003
      7 C         140.5685  142.8956  168.3642 C.ar    1  UNL1       -0.0024
      8 C         140.5579  142.6958  165.3328 C.ar    1  UNL1       -0.0004
      9 C         139.3584  143.5684  165.1093 C.ar    1  UNL1       -0.0024
     10 C         139.4706  144.7914  164.2481 C.ar    1  UNL1       -0.0003
     11 C         140.7824  145.1419  163.6105 C.ar    1  UNL1        0.0038
     12 C         141.9818  144.2693  163.8340 C.ar    1  UNL1        0.0712
     13 C         141.8695  143.0463  164.6951 C.ar    1  UNL1        0.0015
     14 C         143.2935  144.6198  163.1964 C.3     1  UNL1        0.4186
     15 F         144.6053  144.9704  162.5588 F       1  UNL1       -0.1659
     16 F         142.9257  143.8050  161.9919 F       1  UNL1       -0.1659
     17 F         143.6613  145.4346  164.4009 F       1  UNL1       -0.1659
     18 O         138.0361  140.1711  164.9690 O.2     1  UNL1       -0.2732
     19 C         139.3561  139.4586  164.9665 C.2     1  UNL1        0.2430
     20 N         140.5608  140.1094  165.5789 N.am    1  UNL1       -0.2972
     21 H         141.4271  139.6417  165.5773 H       1  UNL1        0.1500
     22 C         139.4713  138.0953  164.3517 C.3     1  UNL1        0.1759
     23 N         139.6484  137.9539  162.8688 N.am    1  UNL1       -0.2931
     24 C         140.8739  138.5067  162.2037 C.2     1  UNL1        0.2462
     25 O         141.9224  139.2010  163.0214 O.2     1  UNL1       -0.2701
     26 H         138.9603  137.4982  162.3322 H       1  UNL1        0.1502
     27 C         141.0510  138.3652  160.7209 C.ar    1  UNL1        0.0535
     28 C         139.8830  138.5725  159.8029 C.ar    1  UNL1        0.0068
     29 C         140.0601  138.4310  158.3202 C.ar    1  UNL1        0.0298
     30 C         141.4053  138.0823  157.7554 C.ar    1  UNL1        0.1401
     31 F         141.5824  137.9408  156.2726 F       1  UNL1       -0.2042
     32 C         142.5733  137.8751  158.6734 C.ar    1  UNL1        0.0298
     33 C         142.3962  138.0165  160.1561 C.ar    1  UNL1        0.0068
@<TRIPOS>BOND
     1    18    19    2
     2    19    22    1
     3    22    23    1
     4    23    24   am
     5    24    25    2
     6    24    27    1
     7    27    28   ar
     8    28    29   ar
     9    29    30   ar
    10    30    31    1
    11    30    32   ar
    12    32    33   ar
    13    19    20   am
    14    20     1    1
    15     1     2    1
    16     2     3   ar
    17     3     4   ar
    18     4     5   ar
    19     5     6   ar
    20     6     7   ar
    21     1     8    1
    22     8     9   ar
    23     9    10   ar
    24    10    11   ar
    25    11    12   ar
    26    12    14    1
    27    14    15    1
    28    14    16    1
    29    14    17    1
    30    12    13   ar
    31    33    27   ar
    32     7     2   ar
    33    13     8   ar
    34    23    26    1
    35    20    21    1
@<TRIPOS>MOLECULE
*****
 33 35 0 0 0
SMALL
GASTEIGER

@<TRIPOS>ATOM
      1 C         140.8941  142.0486  166.2778 C.3     1  UNL1        0.1169
      2 C         141.4551  142.3831  167.6280 C.ar    1  UNL1       -0.0003
      3 C         140.6175  143.1283  168.6245 C.ar    1  UNL1       -0.0024
      4 C         141.1786  143.4628  169.9749 C.ar    1  UNL1       -0.0003
      5 C         142.5772  143.0520  170.3287 C.ar    1  UNL1       -0.0000
      6 C         143.4147  142.3067  169.3321 C.ar    1  UNL1       -0.0003
      7 C         142.8537  141.9723  167.9818 C.ar    1  UNL1       -0.0024
      8 C         140.0018  140.8544  166.1111 C.ar    1  UNL1       -0.0004
      9 C         139.3991  140.1945  167.3159 C.ar    1  UNL1       -0.0024
     10 C         138.5069  139.0003  167.1493 C.ar    1  UNL1       -0.0003
     11 C         138.2174  138.4659  165.7778 C.ar    1  UNL1        0.0038
     12 C         138.8201  139.1258  164.5732 C.ar    1  UNL1        0.0712
     13 C         139.7123  140.3200  164.7398 C.ar    1  UNL1        0.0015
     14 C         138.5306  138.5914  163.2018 C.3     1  UNL1        0.4186
     15 F         138.2411  138.0570  161.8304 F       1  UNL1       -0.1659
     16 F         138.6579  137.1899  163.7211 F       1  UNL1       -0.1659
     17 F         138.4033  139.9928  162.6826 F       1  UNL1       -0.1659
     18 O         139.0843  144.3177  165.5187 O.2     1  UNL1       -0.2732
     19 C         140.3204  144.0429  164.7145 C.2     1  UNL1        0.2430
     20 N         141.2252  142.9084  165.0940 N.am    1  UNL1       -0.2972
     21 H         142.0365  142.7281  164.5662 H       1  UNL1        0.1500
     22 C         140.6515  144.9026  163.5308 C.3     1  UNL1        0.1759
     23 N         140.6558  144.3114  162.1522 N.am    1  UNL1       -0.2931
     24 C         139.3632  143.9168  161.5014 C.2     1  UNL1        0.2462
     25 O         138.0664  144.1134  162.2291 O.2     1  UNL1       -0.2701
     26 H         141.5069  144.1824  161.6745 H       1  UNL1        0.1502
     27 C         139.3675  143.3257  160.1227 C.ar    1  UNL1        0.0535
     28 C         140.1474  143.9871  159.0254 C.ar    1  UNL1        0.0068
     29 C         140.1516  143.3959  157.6469 C.ar    1  UNL1        0.0298
     30 C         139.3759  142.1433  157.3656 C.ar    1  UNL1        0.1401
     31 F         139.3801  141.5521  155.9870 F       1  UNL1       -0.2042
     32 C         138.5959  141.4818  158.4629 C.ar    1  UNL1        0.0298
     33 C         138.5917  142.0730  159.8415 C.ar    1  UNL1        0.0068
@<TRIPOS>BOND
     1    18    19    2
     2    19    22    1
     3    22    23    1
     4    23    24   am
     5    24    25    2
     6    24    27    1
     7    27    28   ar
     8    28    29   ar
     9    29    30   ar
    10    30    31    1
    11    30    32   ar
    12    32    33   ar
    13    19    20   am
    14    20     1    1
    15     1     2    1
    16     2     3   ar
    17     3     4   ar
    18     4     5   ar
    19     5     6   ar
    20     6     7   ar
    21     1     8    1
    22     8     9   ar
    23     9    10   ar
    24    10    11   ar
    25    11    12   ar
    26    12    14    1
    27    14    15    1
    28    14    16    1
    29    14    17    1
    30    12    13   ar
    31    33    27   ar
    32     7     2   ar
    33    13     8   ar
    34    23    26    1
    35    20    21    1
@<TRIPOS>MOLECULE
*****
 33 35 0 0 0
SMALL
GASTEIGER

@<TRIPOS>ATOM
      1 C         142.1775  140.9531  166.0363 C.3     1  UNL1        0.1169
      2 C         142.5203  140.9612  167.4965 C.ar    1  UNL1       -0.0003
      3 C         142.2693  139.7413  168.3325 C.ar    1  UNL1       -0.0024
      4 C         142.6122  139.7493  169.7929 C.ar    1  UNL1       -0.0003
      5 C         143.2060  140.9772  170.4171 C.ar    1  UNL1       -0.0000
      6 C         143.4570  142.1970  169.5810 C.ar    1  UNL1       -0.0003
      7 C         143.1142  142.1890  168.1208 C.ar    1  UNL1       -0.0024
      8 C         141.7173  142.2142  165.3670 C.ar    1  UNL1       -0.0004
      9 C         142.5931  142.8872  164.3520 C.ar    1  UNL1       -0.0024
     10 C         142.1329  144.1482  163.6827 C.ar    1  UNL1       -0.0003
     11 C         140.7969  144.7363  164.0284 C.ar    1  UNL1        0.0038
     12 C         139.9212  144.0633  165.0434 C.ar    1  UNL1        0.0712
     13 C         140.3814  142.8023  165.7127 C.ar    1  UNL1        0.0015
     14 C         138.5853  144.6514  165.3890 C.3     1  UNL1        0.4186
     15 F         137.2493  145.2395  165.7347 F       1  UNL1       -0.1659
     16 F         138.9971  144.7405  166.8286 F       1  UNL1       -0.1659
     17 F         138.1736  144.5622  163.9494 F       1  UNL1       -0.1659
     18 O         139.8202  139.1134  165.7936 O.2     1  UNL1       -0.2732
     19 C         141.1162  138.7642  165.1240 C.2     1  UNL1        0.2430
     20 N         142.2948  139.6840  165.2453 N.am    1  UNL1       -0.2972
     21 H         143.1454  139.4548  164.8057 H       1  UNL1        0.1500
     22 C         141.2336  137.4952  164.3330 C.3     1  UNL1        0.1759
     23 N         140.9842  137.5075  162.8539 N.am    1  UNL1       -0.2931
     24 C         141.9869  138.1318  161.9294 C.2     1  UNL1        0.2462
     25 O         143.2391  138.7438  162.4839 O.2     1  UNL1       -0.2701
     26 H         140.1623  137.1058  162.4899 H       1  UNL1        0.1502
     27 C         141.7375  138.1441  160.4502 C.ar    1  UNL1        0.0535
     28 C         140.4012  138.5701  159.9185 C.ar    1  UNL1        0.0068
     29 C         140.1518  138.5825  158.4395 C.ar    1  UNL1        0.0298
     30 C         141.2387  138.1688  157.4922 C.ar    1  UNL1        0.1401
     31 F         140.9893  138.1811  156.0130 F       1  UNL1       -0.2042
     32 C         142.5750  137.7428  158.0239 C.ar    1  UNL1        0.0298
     33 C         142.8244  137.7305  159.5029 C.ar    1  UNL1        0.0068
@<TRIPOS>BOND
     1    18    19    2
     2    19    22    1
     3    22    23    1
     4    23    24   am
     5    24    25    2
     6    24    27    1
     7    27    28   ar
     8    28    29   ar
     9    29    30   ar
    10    30    31    1
    11    30    32   ar
    12    32    33   ar
    13    19    20   am
    14    20     1    1
    15     1     2    1
    16     2     3   ar
    17     3     4   ar
    18     4     5   ar
    19     5     6   ar
    20     6     7   ar
    21     1     8    1
    22     8     9   ar
    23     9    10   ar
    24    10    11   ar
    25    11    12   ar
    26    12    14    1
    27    14    15    1
    28    14    16    1
    29    14    17    1
    30    12    13   ar
    31    33    27   ar
    32     7     2   ar
    33    13     8   ar
    34    23    26    1
    35    20    21    1
