@<TRIPOS>MOLECULE
*****
 31 34 0 0 0
SMALL
GASTEIGER

@<TRIPOS>ATOM
      1 C         139.9056  144.6829  162.2227 C.3     1  UNL1        0.1010
      2 C         139.1245  143.4346  161.9373 C.2     1  UNL1        0.2274
      3 O         138.4862  143.2399  160.5940 O.2     1  UNL1       -0.2748
      4 N         138.9817  142.3809  162.9954 N.am    1  UNL1       -0.2705
      5 C         138.2006  141.1326  162.7100 C.3     1  UNL1        0.1183
      6 C         138.0578  140.0789  163.7680 C.3     1  UNL1        0.1301
      7 N         138.6962  140.2736  165.1114 N.ar    1  UNL1       -0.2924
      8 C         139.4773  141.5220  165.3967 C.ar    1  UNL1        0.1635
      9 N         139.9908  141.4360  166.8035 N.ar    1  UNL1       -0.1316
     10 N         139.5270  140.1346  167.3876 N.ar    1  UNL1       -0.1249
     11 C         138.7269  139.4161  166.3418 C.ar    1  UNL1        0.2383
     12 C         139.6201  142.5756  164.3387 C.3     1  UNL1        0.1596
     13 C         138.0724  138.0756  166.4989 C.3     1  UNL1        0.4524
     14 F         137.4178  136.7352  166.6560 F       1  UNL1       -0.1632
     15 F         137.1151  138.6598  167.4949 F       1  UNL1       -0.1632
     16 F         139.0297  137.4915  165.5028 F       1  UNL1       -0.1632
     17 N         141.7228  145.2542  160.4558 N.3     1  UNL1       -0.3215
     18 C         141.3496  144.7713  161.8260 C.3     1  UNL1        0.0640
     19 H         140.8766  145.4770  159.9317 H       1  UNL1        0.1188
     20 H         142.2426  144.5246  159.9681 H       1  UNL1        0.1188
     21 C         142.4203  144.3768  162.7996 C.3     1  UNL1        0.0371
     22 C         143.0673  145.2760  163.8109 C.3     1  UNL1        0.0104
     23 C         144.0789  144.4687  164.5692 C.3     1  UNL1        0.0265
     24 C         144.0571  143.0705  164.0264 C.ar    1  UNL1       -0.0237
     25 C         144.8382  141.8417  164.3868 C.ar    1  UNL1        0.0274
     26 C         144.5944  140.5561  163.6536 C.ar    1  UNL1        0.1670
     27 F         145.3755  139.3273  164.0139 F       1  UNL1       -0.2018
     28 C         143.5693  140.4992  162.5599 C.ar    1  UNL1        0.1670
     29 F         143.3254  139.2136  161.8267 F       1  UNL1       -0.2018
     30 C         142.7881  141.7281  162.1995 C.ar    1  UNL1        0.0274
     31 C         143.0320  143.0137  162.9328 C.ar    1  UNL1       -0.0228
@<TRIPOS>BOND
     1    18    17    1
     2    18     1    1
     3     1     2    1
     4     2     3    2
     5     2     4   am
     6     4     5    1
     7     5     6    1
     8     6     7    1
     9     7     8   ar
    10     8     9   ar
    11     9    10   ar
    12    10    11   ar
    13    11    13    1
    14    13    14    1
    15    13    15    1
    16    13    16    1
    17     8    12    1
    18    18    21    1
    19    21    22    1
    20    22    23    1
    21    23    24    1
    22    24    25   ar
    23    25    26   ar
    24    26    27    1
    25    26    28   ar
    26    28    29    1
    27    28    30   ar
    28    30    31   ar
    29    12     4    1
    30    31    21    1
    31    11     7   ar
    32    31    24   ar
    33    17    19    1
    34    17    20    1
@<TRIPOS>MOLECULE
*****
 31 34 0 0 0
SMALL
GASTEIGER

@<TRIPOS>ATOM
      1 C         140.5671  141.8331  168.3656 C.3     1  UNL1        0.1010
      2 C         141.5684  142.2818  167.3429 C.2     1  UNL1        0.2274
      3 O         143.0358  142.1194  167.6083 O.2     1  UNL1       -0.2748
      4 N         141.1024  142.8930  166.0547 N.am    1  UNL1       -0.2705
      5 C         142.1037  143.3417  165.0320 C.3     1  UNL1        0.1183
      6 C         141.6376  143.9528  163.7439 C.3     1  UNL1        0.1301
      7 N         140.1702  144.1152  163.4785 N.ar    1  UNL1       -0.2924
      8 C         139.1689  143.6665  164.5012 C.ar    1  UNL1        0.1635
      9 N         137.7979  143.9525  163.9642 N.ar    1  UNL1       -0.1316
     10 N         137.9518  144.5781  162.6095 N.ar    1  UNL1       -0.1249
     11 C         139.4180  144.6786  162.3093 C.ar    1  UNL1        0.2383
     12 C         139.6350  143.0554  165.7893 C.3     1  UNL1        0.1596
     13 C         140.0254  145.2433  161.0595 C.3     1  UNL1        0.4524
     14 F         140.6328  145.8082  159.8097 F       1  UNL1       -0.1632
     15 F         140.0227  146.6107  161.6761 F       1  UNL1       -0.1632
     16 F         140.0281  143.8759  160.4429 F       1  UNL1       -0.1632
     17 N         140.5858  139.6853  169.8273 N.3     1  UNL1       -0.3215
     18 C         140.2684  140.3726  168.5324 C.3     1  UNL1        0.0640
     19 H         140.9964  140.3562  170.4766 H       1  UNL1        0.1188
     20 H         141.2478  138.9282  169.6570 H       1  UNL1        0.1188
     21 C         139.6522  139.5995  167.4043 C.3     1  UNL1        0.0371
     22 C         138.2083  139.2103  167.2874 C.3     1  UNL1        0.0104
     23 C         138.0354  138.4501  166.0059 C.3     1  UNL1        0.0265
     24 C         139.3726  138.3695  165.3308 C.ar    1  UNL1       -0.0237
     25 C         139.8094  137.7411  164.0408 C.ar    1  UNL1        0.0274
     26 C         141.2453  137.8229  163.6150 C.ar    1  UNL1        0.1670
     27 F         141.6822  137.1945  162.3249 F       1  UNL1       -0.2018
     28 C         142.2446  138.5333  164.4793 C.ar    1  UNL1        0.1670
     29 F         143.6805  138.6152  164.0536 F       1  UNL1       -0.2018
     30 C         141.8077  139.1618  165.7694 C.ar    1  UNL1        0.0274
     31 C         140.3718  139.0799  166.1951 C.ar    1  UNL1       -0.0228
@<TRIPOS>BOND
     1    18    17    1
     2    18     1    1
     3     1     2    1
     4     2     3    2
     5     2     4   am
     6     4     5    1
     7     5     6    1
     8     6     7    1
     9     7     8   ar
    10     8     9   ar
    11     9    10   ar
    12    10    11   ar
    13    11    13    1
    14    13    14    1
    15    13    15    1
    16    13    16    1
    17     8    12    1
    18    18    21    1
    19    21    22    1
    20    22    23    1
    21    23    24    1
    22    24    25   ar
    23    25    26   ar
    24    26    27    1
    25    26    28   ar
    26    28    29    1
    27    28    30   ar
    28    30    31   ar
    29    12     4    1
    30    31    21    1
    31    11     7   ar
    32    31    24   ar
    33    17    19    1
    34    17    20    1
@<TRIPOS>MOLECULE
*****
 31 34 0 0 0
SMALL
GASTEIGER

@<TRIPOS>ATOM
      1 C         143.0334  138.3080  164.9530 C.3     1  UNL1        0.1010
      2 C         141.6652  138.5692  165.5096 C.2     1  UNL1        0.2274
      3 O         140.4870  137.7943  164.9983 O.2     1  UNL1       -0.2748
      4 N         141.4751  139.6053  166.5775 N.am    1  UNL1       -0.2705
      5 C         140.1069  139.8665  167.1341 C.3     1  UNL1        0.1183
      6 C         139.9169  140.9025  168.2020 C.3     1  UNL1        0.1301
      7 N         141.0951  141.6774  168.7133 N.ar    1  UNL1       -0.2924
      8 C         142.4632  141.4163  168.1567 C.ar    1  UNL1        0.1635
      9 N         143.4286  142.3299  168.8519 N.ar    1  UNL1       -0.1316
     10 N         142.6570  143.1558  169.8381 N.ar    1  UNL1       -0.1249
     11 C         141.2148  142.7526  169.7525 C.ar    1  UNL1        0.2383
     12 C         142.6533  140.3802  167.0889 C.3     1  UNL1        0.1596
     13 C         140.0898  143.3240  170.5636 C.3     1  UNL1        0.4524
     14 F         138.9649  143.8956  171.3746 F       1  UNL1       -0.1632
     15 F         140.2166  144.6229  169.8241 F       1  UNL1       -0.1632
     16 F         139.9631  142.0251  171.3030 F       1  UNL1       -0.1632
     17 N         143.3409  138.2905  162.3733 N.3     1  UNL1       -0.3215
     18 C         143.4734  138.9919  163.6925 C.3     1  UNL1        0.0640
     19 H         142.9361  137.3657  162.5190 H       1  UNL1        0.1188
     20 H         144.2618  138.1949  161.9450 H       1  UNL1        0.1188
     21 C         144.0459  140.3771  163.7513 C.3     1  UNL1        0.0371
     22 C         145.5019  140.7262  163.8421 C.3     1  UNL1        0.0104
     23 C         145.6187  142.2213  163.8766 C.3     1  UNL1        0.0265
     24 C         144.2349  142.7961  163.8071 C.ar    1  UNL1       -0.0237
     25 C         143.7344  144.2101  163.8044 C.ar    1  UNL1        0.0274
     26 C         142.2619  144.4844  163.7243 C.ar    1  UNL1        0.1670
     27 F         141.7614  145.8984  163.7215 F       1  UNL1       -0.2018
     28 C         141.2898  143.3446  163.6469 C.ar    1  UNL1        0.1670
     29 F         139.8174  143.6188  163.5667 F       1  UNL1       -0.2018
     30 C         141.7903  141.9305  163.6496 C.ar    1  UNL1        0.0274
     31 C         143.2629  141.6563  163.7297 C.ar    1  UNL1       -0.0228
@<TRIPOS>BOND
     1    18    17    1
     2    18     1    1
     3     1     2    1
     4     2     3    2
     5     2     4   am
     6     4     5    1
     7     5     6    1
     8     6     7    1
     9     7     8   ar
    10     8     9   ar
    11     9    10   ar
    12    10    11   ar
    13    11    13    1
    14    13    14    1
    15    13    15    1
    16    13    16    1
    17     8    12    1
    18    18    21    1
    19    21    22    1
    20    22    23    1
    21    23    24    1
    22    24    25   ar
    23    25    26   ar
    24    26    27    1
    25    26    28   ar
    26    28    29    1
    27    28    30   ar
    28    30    31   ar
    29    12     4    1
    30    31    21    1
    31    11     7   ar
    32    31    24   ar
    33    17    19    1
    34    17    20    1
@<TRIPOS>MOLECULE
*****
 31 34 0 0 0
SMALL
GASTEIGER

@<TRIPOS>ATOM
      1 C         138.5321  139.5040  163.5044 C.3     1  UNL1        0.1010
      2 C         139.9737  139.3274  163.8794 C.2     1  UNL1        0.2274
      3 O         140.9988  139.0670  162.8158 O.2     1  UNL1       -0.2748
      4 N         140.3901  139.4111  165.3180 N.am    1  UNL1       -0.2705
      5 C         141.8317  139.2344  165.6930 C.3     1  UNL1        0.1183
      6 C         142.2480  139.3181  167.1316 C.3     1  UNL1        0.1301
      7 N         141.2229  139.5784  168.1952 N.ar    1  UNL1       -0.2924
      8 C         139.7813  139.7551  167.8202 C.ar    1  UNL1        0.1635
      9 N         139.0016  139.9985  169.0783 N.ar    1  UNL1       -0.1316
     10 N         139.9613  139.9724  170.2308 N.ar    1  UNL1       -0.1249
     11 C         141.3341  139.7127  169.6851 C.ar    1  UNL1        0.2383
     12 C         139.3649  139.6714  166.3816 C.3     1  UNL1        0.1596
     13 C         142.5965  139.6061  170.4881 C.3     1  UNL1        0.4524
     14 F         143.8589  139.4996  171.2912 F       1  UNL1       -0.1632
     15 F         142.5481  141.0804  170.7599 F       1  UNL1       -0.1632
     16 F         142.6450  138.1318  170.2163 F       1  UNL1       -0.1632
     17 N         137.0938  140.8519  161.8118 N.3     1  UNL1       -0.3215
     18 C         138.0533  140.8190  162.9644 C.3     1  UNL1        0.0640
     19 H         136.8757  139.8980  161.5237 H       1  UNL1        0.1188
     20 H         137.5169  141.3544  161.0315 H       1  UNL1        0.1188
     21 C         138.5339  142.1011  163.5769 C.3     1  UNL1        0.0371
     22 C         137.7867  142.9365  164.5738 C.3     1  UNL1        0.0104
     23 C         138.6372  144.1246  164.9131 C.3     1  UNL1        0.0265
     24 C         139.9100  144.0235  164.1258 C.ar    1  UNL1       -0.0237
     25 C         141.1189  144.9086  164.0542 C.ar    1  UNL1        0.0274
     26 C         142.2639  144.5433  163.1569 C.ar    1  UNL1        0.1670
     27 F         143.4728  145.4285  163.0853 F       1  UNL1       -0.2018
     28 C         142.2001  143.2927  162.3310 C.ar    1  UNL1        0.1670
     29 F         143.3451  142.9273  161.4336 F       1  UNL1       -0.2018
     30 C         140.9912  142.4075  162.4026 C.ar    1  UNL1        0.0274
     31 C         139.8462  142.7729  163.3000 C.ar    1  UNL1       -0.0228
@<TRIPOS>BOND
     1    18    17    1
     2    18     1    1
     3     1     2    1
     4     2     3    2
     5     2     4   am
     6     4     5    1
     7     5     6    1
     8     6     7    1
     9     7     8   ar
    10     8     9   ar
    11     9    10   ar
    12    10    11   ar
    13    11    13    1
    14    13    14    1
    15    13    15    1
    16    13    16    1
    17     8    12    1
    18    18    21    1
    19    21    22    1
    20    22    23    1
    21    23    24    1
    22    24    25   ar
    23    25    26   ar
    24    26    27    1
    25    26    28   ar
    26    28    29    1
    27    28    30   ar
    28    30    31   ar
    29    12     4    1
    30    31    21    1
    31    11     7   ar
    32    31    24   ar
    33    17    19    1
    34    17    20    1
@<TRIPOS>MOLECULE
*****
 31 34 0 0 0
SMALL
GASTEIGER

@<TRIPOS>ATOM
      1 C         141.1934  141.8997  168.0718 C.3     1  UNL1        0.1010
      2 C         142.0640  142.5025  167.0094 C.2     1  UNL1        0.2274
      3 O         143.5538  142.5222  167.1826 O.2     1  UNL1       -0.2748
      4 N         141.4447  143.0857  165.7739 N.am    1  UNL1       -0.2705
      5 C         142.3153  143.6885  164.7115 C.3     1  UNL1        0.1183
      6 C         141.6960  144.2716  163.4761 C.3     1  UNL1        0.1301
      7 N         140.2062  144.2519  163.3029 N.ar    1  UNL1       -0.2924
      8 C         139.3356  143.6490  164.3653 C.ar    1  UNL1        0.1635
      9 N         137.9085  143.7721  163.9201 N.ar    1  UNL1       -0.1316
     10 N         137.8970  144.4510  162.5826 N.ar    1  UNL1       -0.1249
     11 C         139.3171  144.7476  162.2011 C.ar    1  UNL1        0.2383
     12 C         139.9549  143.0659  165.6008 C.3     1  UNL1        0.1596
     13 C         139.7688  145.4214  160.9394 C.3     1  UNL1        0.4524
     14 F         140.2205  146.0952  159.6777 F       1  UNL1       -0.1632
     15 F         140.0178  144.0815  160.3130 F       1  UNL1       -0.1632
     16 F         139.5197  146.7614  161.5659 F       1  UNL1       -0.1632
     17 N         140.1132  139.8120  169.1786 N.3     1  UNL1       -0.3215
     18 C         140.9646  140.4175  168.1022 C.3     1  UNL1        0.0640
     19 H         139.7746  140.5478  169.7984 H       1  UNL1        0.1188
     20 H         140.6671  139.1440  169.7147 H       1  UNL1        0.1188
     21 C         141.5870  139.5409  167.0562 C.3     1  UNL1        0.0371
     22 C         142.9510  138.9202  167.1237 C.3     1  UNL1        0.0104
     23 C         143.1618  138.1268  165.8683 C.3     1  UNL1        0.0265
     24 C         141.9281  138.2571  165.0250 C.ar    1  UNL1       -0.0237
     25 C         141.5652  137.6928  163.6834 C.ar    1  UNL1        0.0274
     26 C         140.2292  138.0024  163.0759 C.ar    1  UNL1        0.1670
     27 F         139.8663  137.4382  161.7343 F       1  UNL1       -0.2018
     28 C         139.2559  138.8764  163.8101 C.ar    1  UNL1        0.1670
     29 F         137.9199  139.1861  163.2027 F       1  UNL1       -0.2018
     30 C         139.6188  139.4407  165.1518 C.ar    1  UNL1        0.0274
     31 C         140.9549  139.1310  165.7592 C.ar    1  UNL1       -0.0228
@<TRIPOS>BOND
     1    18    17    1
     2    18     1    1
     3     1     2    1
     4     2     3    2
     5     2     4   am
     6     4     5    1
     7     5     6    1
     8     6     7    1
     9     7     8   ar
    10     8     9   ar
    11     9    10   ar
    12    10    11   ar
    13    11    13    1
    14    13    14    1
    15    13    15    1
    16    13    16    1
    17     8    12    1
    18    18    21    1
    19    21    22    1
    20    22    23    1
    21    23    24    1
    22    24    25   ar
    23    25    26   ar
    24    26    27    1
    25    26    28   ar
    26    28    29    1
    27    28    30   ar
    28    30    31   ar
    29    12     4    1
    30    31    21    1
    31    11     7   ar
    32    31    24   ar
    33    17    19    1
    34    17    20    1
@<TRIPOS>MOLECULE
*****
 31 34 0 0 0
SMALL
GASTEIGER

@<TRIPOS>ATOM
      1 C         140.1474  137.7468  162.5175 C.3     1  UNL1        0.1010
      2 C         139.0681  138.7431  162.2137 C.2     1  UNL1        0.2274
      3 O         137.6542  138.2814  162.0194 O.2     1  UNL1       -0.2748
      4 N         139.4026  140.2013  162.1042 N.am    1  UNL1       -0.2705
      5 C         138.3233  141.1976  161.8004 C.3     1  UNL1        0.1183
      6 C         138.6578  142.6557  161.6908 C.3     1  UNL1        0.1301
      7 N         140.0717  143.1174  161.8851 N.ar    1  UNL1       -0.2924
      8 C         141.1510  142.1211  162.1890 C.ar    1  UNL1        0.1635
      9 N         142.4446  142.8674  162.3294 N.ar    1  UNL1       -0.1316
     10 N         142.1647  144.3250  162.1123 N.ar    1  UNL1       -0.1249
     11 C         140.6982  144.4796  161.8378 C.ar    1  UNL1        0.2383
     12 C         140.8165  140.6630  162.2985 C.3     1  UNL1        0.1596
     13 C         139.9836  145.7697  161.5639 C.3     1  UNL1        0.4524
     14 F         139.2691  147.0598  161.2900 F       1  UNL1       -0.1632
     15 F         140.4632  145.7337  160.1432 F       1  UNL1       -0.1632
     16 F         139.5040  145.8056  162.9848 F       1  UNL1       -0.1632
     17 N         141.5502  136.4097  164.2480 N.3     1  UNL1       -0.3215
     18 C         140.5251  137.4608  163.9408 C.3     1  UNL1        0.0640
     19 H         141.8823  135.9941  163.3777 H       1  UNL1        0.1188
     20 H         141.1308  135.6862  164.8320 H       1  UNL1        0.1188
     21 C         139.8778  138.2260  165.0568 C.3     1  UNL1        0.0371
     22 C         138.5080  137.9795  165.6164 C.3     1  UNL1        0.0104
     23 C         138.2702  138.9731  166.7146 C.3     1  UNL1        0.0265
     24 C         139.4930  139.8337  166.8338 C.ar    1  UNL1       -0.0237
     25 C         139.8302  140.9782  167.7428 C.ar    1  UNL1        0.0274
     26 C         141.1608  141.6609  167.6275 C.ar    1  UNL1        0.1670
     27 F         141.4979  142.8054  168.5366 F       1  UNL1       -0.2018
     28 C         142.1543  141.1992  166.6029 C.ar    1  UNL1        0.1670
     29 F         143.4849  141.8818  166.4875 F       1  UNL1       -0.2018
     30 C         141.8172  140.0546  165.6937 C.ar    1  UNL1        0.0274
     31 C         140.4865  139.3719  165.8092 C.ar    1  UNL1       -0.0228
@<TRIPOS>BOND
     1    18    17    1
     2    18     1    1
     3     1     2    1
     4     2     3    2
     5     2     4   am
     6     4     5    1
     7     5     6    1
     8     6     7    1
     9     7     8   ar
    10     8     9   ar
    11     9    10   ar
    12    10    11   ar
    13    11    13    1
    14    13    14    1
    15    13    15    1
    16    13    16    1
    17     8    12    1
    18    18    21    1
    19    21    22    1
    20    22    23    1
    21    23    24    1
    22    24    25   ar
    23    25    26   ar
    24    26    27    1
    25    26    28   ar
    26    28    29    1
    27    28    30   ar
    28    30    31   ar
    29    12     4    1
    30    31    21    1
    31    11     7   ar
    32    31    24   ar
    33    17    19    1
    34    17    20    1
@<TRIPOS>MOLECULE
*****
 31 34 0 0 0
SMALL
GASTEIGER

@<TRIPOS>ATOM
      1 C         141.7725  145.5313  163.6506 C.3     1  UNL1        0.1010
      2 C         142.7708  144.4526  163.3511 C.2     1  UNL1        0.2274
      3 O         143.7452  144.6244  162.2237 O.2     1  UNL1       -0.2748
      4 N         142.7947  143.2019  164.1790 N.am    1  UNL1       -0.2705
      5 C         143.7930  142.1232  163.8796 C.3     1  UNL1        0.1183
      6 C         143.8169  140.8726  164.7075 C.3     1  UNL1        0.1301
      7 N         142.8425  140.7008  165.8348 N.ar    1  UNL1       -0.2924
      8 C         141.8442  141.7795  166.1343 C.ar    1  UNL1        0.1635
      9 N         141.0139  141.3318  167.3005 N.ar    1  UNL1       -0.1316
     10 N         141.4990  139.9763  167.7218 N.ar    1  UNL1       -0.1249
     11 C         142.6291  139.5863  166.8160 C.ar    1  UNL1        0.2383
     12 C         141.8203  143.0300  165.3064 C.3     1  UNL1        0.1596
     13 C         143.4090  138.3066  166.8800 C.3     1  UNL1        0.4524
     14 F         144.1889  137.0269  166.9440 F       1  UNL1       -0.1632
     15 F         143.3638  138.3541  168.3785 F       1  UNL1       -0.1632
     16 F         143.4542  138.2592  165.3814 F       1  UNL1       -0.1632
     17 N         140.1226  146.5060  161.8962 N.3     1  UNL1       -0.3215
     18 C         140.4299  145.5174  162.9817 C.3     1  UNL1        0.0640
     19 H         140.9330  147.1063  161.7436 H       1  UNL1        0.1188
     20 H         139.3238  147.0770  162.1726 H       1  UNL1        0.1188
     21 C         139.3947  144.5150  163.3983 C.3     1  UNL1        0.0371
     22 C         138.5640  144.5721  164.6459 C.3     1  UNL1        0.0104
     23 C         137.6644  143.3719  164.6591 C.3     1  UNL1        0.0265
     24 C         137.9392  142.5730  163.4195 C.ar    1  UNL1       -0.0237
     25 C         137.3537  141.2936  162.8997 C.ar    1  UNL1        0.0274
     26 C         137.8377  140.7206  161.6007 C.ar    1  UNL1        0.1670
     27 F         137.2522  139.4411  161.0808 F       1  UNL1       -0.2018
     28 C         138.9071  141.4271  160.8214 C.ar    1  UNL1        0.1670
     29 F         139.3911  140.8542  159.5225 F       1  UNL1       -0.2018
     30 C         139.4926  142.7066  161.3413 C.ar    1  UNL1        0.0274
     31 C         139.0086  143.2796  162.6403 C.ar    1  UNL1       -0.0228
@<TRIPOS>BOND
     1    18    17    1
     2    18     1    1
     3     1     2    1
     4     2     3    2
     5     2     4   am
     6     4     5    1
     7     5     6    1
     8     6     7    1
     9     7     8   ar
    10     8     9   ar
    11     9    10   ar
    12    10    11   ar
    13    11    13    1
    14    13    14    1
    15    13    15    1
    16    13    16    1
    17     8    12    1
    18    18    21    1
    19    21    22    1
    20    22    23    1
    21    23    24    1
    22    24    25   ar
    23    25    26   ar
    24    26    27    1
    25    26    28   ar
    26    28    29    1
    27    28    30   ar
    28    30    31   ar
    29    12     4    1
    30    31    21    1
    31    11     7   ar
    32    31    24   ar
    33    17    19    1
    34    17    20    1
@<TRIPOS>MOLECULE
*****
 31 34 0 0 0
SMALL
GASTEIGER

@<TRIPOS>ATOM
      1 C         142.4787  140.3804  167.1840 C.3     1  UNL1        0.1010
      2 C         143.0550  139.6471  166.0092 C.2     1  UNL1        0.2274
      3 O         143.4319  138.2011  166.1390 O.2     1  UNL1       -0.2748
      4 N         143.2546  140.3600  164.7045 N.am    1  UNL1       -0.2705
      5 C         143.8309  139.6267  163.5298 C.3     1  UNL1        0.1183
      6 C         144.0304  140.3396  162.2252 C.3     1  UNL1        0.1301
      7 N         143.6535  141.7856  162.0953 N.ar    1  UNL1       -0.2924
      8 C         143.0772  142.5189  163.2701 C.ar    1  UNL1        0.1635
      9 N         142.8017  143.9309  162.8454 N.ar    1  UNL1       -0.1316
     10 N         143.2078  144.0703  161.4082 N.ar    1  UNL1       -0.1249
     11 C         143.7343  142.7445  160.9446 C.ar    1  UNL1        0.2383
     12 C         142.8777  141.8060  164.5747 C.3     1  UNL1        0.1596
     13 C         144.2508  142.4323  159.5714 C.3     1  UNL1        0.4524
     14 F         144.7674  142.1201  158.1982 F       1  UNL1       -0.1632
     15 F         145.6422  142.7703  160.0180 F       1  UNL1       -0.1632
     16 F         142.8593  142.0943  159.1248 F       1  UNL1       -0.1632
     17 N         140.6343  140.0383  168.9816 N.3     1  UNL1       -0.3215
     18 C         141.0338  140.2006  167.5450 C.3     1  UNL1        0.0640
     19 H         141.4655  140.0745  169.5718 H       1  UNL1        0.1188
     20 H         140.1683  139.1395  169.1055 H       1  UNL1        0.1188
     21 C         139.9886  140.1831  166.4693 C.3     1  UNL1        0.0371
     22 C         139.3250  138.9622  165.9044 C.3     1  UNL1        0.0104
     23 C         138.3497  139.4080  164.8556 C.3     1  UNL1        0.0265
     24 C         138.4105  140.9045  164.7723 C.ar    1  UNL1       -0.0237
     25 C         137.6745  141.8929  163.9171 C.ar    1  UNL1        0.0274
     26 C         137.9512  143.3603  164.0592 C.ar    1  UNL1        0.1670
     27 F         137.2152  144.3486  163.2040 F       1  UNL1       -0.2018
     28 C         138.9642  143.8393  165.0565 C.ar    1  UNL1        0.1670
     29 F         139.2410  145.3066  165.1986 F       1  UNL1       -0.2018
     30 C         139.7003  142.8509  165.9117 C.ar    1  UNL1        0.0274
     31 C         139.4234  141.3835  165.7696 C.ar    1  UNL1       -0.0228
@<TRIPOS>BOND
     1    18    17    1
     2    18     1    1
     3     1     2    1
     4     2     3    2
     5     2     4   am
     6     4     5    1
     7     5     6    1
     8     6     7    1
     9     7     8   ar
    10     8     9   ar
    11     9    10   ar
    12    10    11   ar
    13    11    13    1
    14    13    14    1
    15    13    15    1
    16    13    16    1
    17     8    12    1
    18    18    21    1
    19    21    22    1
    20    22    23    1
    21    23    24    1
    22    24    25   ar
    23    25    26   ar
    24    26    27    1
    25    26    28   ar
    26    28    29    1
    27    28    30   ar
    28    30    31   ar
    29    12     4    1
    30    31    21    1
    31    11     7   ar
    32    31    24   ar
    33    17    19    1
    34    17    20    1
@<TRIPOS>MOLECULE
*****
 31 34 0 0 0
SMALL
GASTEIGER

@<TRIPOS>ATOM
      1 C         144.4914  143.2830  164.2518 C.3     1  UNL1        0.1010
      2 C         143.0456  143.5424  164.5554 C.2     1  UNL1        0.2274
      3 O         142.2834  144.5609  163.7606 O.2     1  UNL1       -0.2748
      4 N         142.3620  142.7834  165.6539 N.am    1  UNL1       -0.2705
      5 C         140.9161  143.0428  165.9575 C.3     1  UNL1        0.1183
      6 C         140.2326  142.2838  167.0559 C.3     1  UNL1        0.1301
      7 N         140.9948  141.2653  167.8507 N.ar    1  UNL1       -0.2924
      8 C         142.4406  141.0058  167.5470 C.ar    1  UNL1        0.1635
      9 N         142.9306  139.9496  168.4927 N.ar    1  UNL1       -0.1316
     10 N         141.7875  139.5563  169.3809 N.ar    1  UNL1       -0.1249
     11 C         140.5911  140.3694  168.9841 C.ar    1  UNL1        0.2383
     12 C         143.1242  141.7649  166.4486 C.3     1  UNL1        0.1596
     13 C         139.2301  140.2991  169.6106 C.3     1  UNL1        0.4524
     14 F         137.8691  140.2288  170.2372 F       1  UNL1       -0.1632
     15 F         139.7564  140.9935  170.8316 F       1  UNL1       -0.1632
     16 F         138.7039  139.6047  168.3896 F       1  UNL1       -0.1632
     17 N         146.2979  141.7841  163.1380 N.3     1  UNL1       -0.3215
     18 C         144.8708  142.2320  163.2509 C.3     1  UNL1        0.0640
     19 H         146.8688  142.2948  163.8116 H       1  UNL1        0.1188
     20 H         146.6385  141.9687  162.1945 H       1  UNL1        0.1188
     21 C         143.8230  141.6290  162.3629 C.3     1  UNL1        0.0371
     22 C         143.4201  142.1309  161.0080 C.3     1  UNL1        0.0104
     23 C         142.3422  141.2303  160.4817 C.3     1  UNL1        0.0265
     24 C         142.0790  140.1717  161.5114 C.ar    1  UNL1       -0.0237
     25 C         141.1242  139.0152  161.5405 C.ar    1  UNL1        0.0274
     26 C         141.0844  138.1051  162.7321 C.ar    1  UNL1        0.1670
     27 F         140.1296  136.9486  162.7612 F       1  UNL1       -0.2018
     28 C         141.9996  138.3515  163.8949 C.ar    1  UNL1        0.1670
     29 F         141.9599  137.4415  165.0865 F       1  UNL1       -0.2018
     30 C         142.9545  139.5081  163.8658 C.ar    1  UNL1        0.0274
     31 C         142.9941  140.4181  162.6740 C.ar    1  UNL1       -0.0228
@<TRIPOS>BOND
     1    18    17    1
     2    18     1    1
     3     1     2    1
     4     2     3    2
     5     2     4   am
     6     4     5    1
     7     5     6    1
     8     6     7    1
     9     7     8   ar
    10     8     9   ar
    11     9    10   ar
    12    10    11   ar
    13    11    13    1
    14    13    14    1
    15    13    15    1
    16    13    16    1
    17     8    12    1
    18    18    21    1
    19    21    22    1
    20    22    23    1
    21    23    24    1
    22    24    25   ar
    23    25    26   ar
    24    26    27    1
    25    26    28   ar
    26    28    29    1
    27    28    30   ar
    28    30    31   ar
    29    12     4    1
    30    31    21    1
    31    11     7   ar
    32    31    24   ar
    33    17    19    1
    34    17    20    1
