@<TRIPOS>MOLECULE
*****
 26 28 0 0 0
SMALL
GASTEIGER

@<TRIPOS>ATOM
      1 C         137.7055  140.1024  162.5087 C.3     1  UNL1        0.1111
      2 C         137.3882  139.1628  161.3833 C.3     1  UNL1        0.1598
      3 O         138.3887  138.0456  161.4161 O.3     1  UNL1       -0.3519
      4 C         139.3244  138.2948  162.5616 C.3     1  UNL1        0.1480
      5 C         138.9021  139.5660  163.2369 C.3     1  UNL1        0.0704
      6 C         139.5610  140.1910  164.4309 C.ar    1  UNL1       -0.0186
      7 C         139.0011  139.9598  165.8031 C.ar    1  UNL1       -0.0042
      8 C         139.6599  140.5848  166.9969 C.ar    1  UNL1       -0.0003
      9 C         140.8786  141.4409  166.8186 C.ar    1  UNL1        0.0015
     10 C         141.4384  141.6721  165.4463 C.ar    1  UNL1       -0.0003
     11 C         140.7796  141.0471  164.2525 C.ar    1  UNL1       -0.0042
     12 C         141.5374  142.0659  168.0125 C.ar    1  UNL1        0.0193
     13 C         143.0012  141.8513  168.2594 C.ar    1  UNL1        0.0055
     14 C         143.6600  142.4763  169.4533 C.ar    1  UNL1        0.0497
     15 C         142.8549  143.3159  170.4003 C.ar    1  UNL1        0.2223
     16 F         143.5136  143.9409  171.5942 F       1  UNL1       -0.1832
     17 N         141.3910  143.5305  170.1534 N.ar    1  UNL1       -0.2165
     18 C         140.7322  142.9055  168.9595 C.ar    1  UNL1        0.1012
     19 N         136.9576  141.3579  162.8464 N.3     1  UNL1       -0.1819
     20 H         136.3130  141.5330  162.0756 H       1  UNL1        0.1485
     21 S         137.7059  142.6360  163.0838 S.O2    1  UNL1        0.0391
     22 O         138.1126  142.6660  161.6403 O.2     1  UNL1       -0.1576
     23 O         137.2993  142.6061  164.5273 O.2     1  UNL1       -0.1576
     24 C         139.1693  144.5863  162.1867 C.3     1  UNL1        0.0270
     25 C         138.4543  143.9141  163.3211 C.3     1  UNL1        0.1457
     26 C         138.4878  144.5200  164.6929 C.3     1  UNL1        0.0270
@<TRIPOS>BOND
     1    24    25    1
     2    25    26    1
     3    25    21    1
     4    21    22    2
     5    21    23    2
     6    21    19    1
     7     1    19    1
     8     1     2    1
     9     2     3    1
    10     3     4    1
    11     4     5    1
    12     5     6    1
    13     6     7   ar
    14     7     8   ar
    15     8     9   ar
    16     9    12    1
    17    12    13   ar
    18    13    14   ar
    19    14    15   ar
    20    15    16    1
    21    15    17   ar
    22    17    18   ar
    23     9    10   ar
    24    10    11   ar
    25     5     1    1
    26    11     6   ar
    27    18    12   ar
    28    19    20    1
@<TRIPOS>MOLECULE
*****
 26 28 0 0 0
SMALL
GASTEIGER

@<TRIPOS>ATOM
      1 C         141.4026  144.6258  161.3263 C.3     1  UNL1        0.1111
      2 C         141.0010  144.8818  159.9040 C.3     1  UNL1        0.1598
      3 O         139.6993  144.1788  159.6561 O.3     1  UNL1       -0.3519
      4 C         139.2964  143.4883  160.9253 C.3     1  UNL1        0.1480
      5 C         140.3491  143.7645  161.9576 C.3     1  UNL1        0.0704
      6 C         140.3484  143.2669  163.3727 C.ar    1  UNL1       -0.0186
      7 C         140.8373  141.8828  163.6812 C.ar    1  UNL1       -0.0042
      8 C         140.8366  141.3852  165.0962 C.ar    1  UNL1       -0.0003
      9 C         140.3470  142.2717  166.2027 C.ar    1  UNL1        0.0015
     10 C         139.8581  143.6558  165.8942 C.ar    1  UNL1       -0.0003
     11 C         139.8588  144.1534  164.4792 C.ar    1  UNL1       -0.0042
     12 C         140.3463  141.7741  167.6178 C.ar    1  UNL1        0.0193
     13 C         140.6825  142.7088  168.7417 C.ar    1  UNL1        0.0055
     14 C         140.6818  142.2112  170.1568 C.ar    1  UNL1        0.0497
     15 C         140.3449  140.7788  170.4479 C.ar    1  UNL1        0.2223
     16 F         140.3442  140.2811  171.8629 F       1  UNL1       -0.1832
     17 N         140.0087  139.8440  169.3239 N.ar    1  UNL1       -0.2165
     18 C         140.0094  140.3417  167.9089 C.ar    1  UNL1        0.1012
     19 N         142.6403  145.1406  161.9993 N.3     1  UNL1       -0.1819
     20 H         143.2452  145.5058  161.2636 H       1  UNL1        0.1485
     21 S         143.4801  144.2183  162.8322 S.O2    1  UNL1        0.0391
     22 O         143.2275  145.0760  164.0366 O.2     1  UNL1       -0.1576
     23 O         143.7328  143.3606  161.6279 O.2     1  UNL1       -0.1576
     24 C         145.1792  142.2602  163.0028 C.3     1  UNL1        0.0270
     25 C         144.3199  143.2960  163.6653 C.3     1  UNL1        0.1457
     26 C         144.3005  143.4094  165.1609 C.3     1  UNL1        0.0270
@<TRIPOS>BOND
     1    24    25    1
     2    25    26    1
     3    25    21    1
     4    21    22    2
     5    21    23    2
     6    21    19    1
     7     1    19    1
     8     1     2    1
     9     2     3    1
    10     3     4    1
    11     4     5    1
    12     5     6    1
    13     6     7   ar
    14     7     8   ar
    15     8     9   ar
    16     9    12    1
    17    12    13   ar
    18    13    14   ar
    19    14    15   ar
    20    15    16    1
    21    15    17   ar
    22    17    18   ar
    23     9    10   ar
    24    10    11   ar
    25     5     1    1
    26    11     6   ar
    27    18    12   ar
    28    19    20    1
@<TRIPOS>MOLECULE
*****
 26 28 0 0 0
SMALL
GASTEIGER

@<TRIPOS>ATOM
      1 C         142.6480  137.9439  161.9267 C.3     1  UNL1        0.1111
      2 C         143.4926  137.7515  160.7022 C.3     1  UNL1        0.1598
      3 O         144.4953  138.8660  160.6508 O.3     1  UNL1       -0.3519
      4 C         144.2703  139.7471  161.8437 C.3     1  UNL1        0.1480
      5 C         143.1286  139.1772  162.6323 C.3     1  UNL1        0.0704
      6 C         142.5663  139.7416  163.9032 C.ar    1  UNL1       -0.0186
      7 C         141.6284  140.9111  163.8541 C.ar    1  UNL1       -0.0042
      8 C         141.0661  141.4755  165.1250 C.ar    1  UNL1       -0.0003
      9 C         141.4418  140.8703  166.4451 C.ar    1  UNL1        0.0015
     10 C         142.3798  139.7008  166.4943 C.ar    1  UNL1       -0.0003
     11 C         142.9420  139.1365  165.2233 C.ar    1  UNL1       -0.0042
     12 C         140.8795  141.4347  167.7161 C.ar    1  UNL1        0.0193
     13 C         140.1188  140.5492  168.6580 C.ar    1  UNL1        0.0055
     14 C         139.5565  141.1136  169.9289 C.ar    1  UNL1        0.0497
     15 C         139.7549  142.5636  170.2580 C.ar    1  UNL1        0.2223
     16 F         139.1926  143.1280  171.5288 F       1  UNL1       -0.1832
     17 N         140.5156  143.4491  169.3160 N.ar    1  UNL1       -0.2165
     18 C         141.0779  142.8847  168.0451 C.ar    1  UNL1        0.1012
     19 N         141.5207  137.0583  162.3682 N.3     1  UNL1       -0.1819
     20 H         141.3726  136.3770  161.6237 H       1  UNL1        0.1485
     21 S         140.1801  137.6521  162.6846 S.O2    1  UNL1        0.0391
     22 O         140.3270  137.2220  164.1141 O.2     1  UNL1       -0.1576
     23 O         140.0332  138.0822  161.2552 O.2     1  UNL1       -0.1576
     24 C         137.7919  138.3451  161.9322 C.3     1  UNL1        0.0270
     25 C         138.8395  138.2459  163.0011 C.3     1  UNL1        0.1457
     26 C         138.5465  138.7404  164.3866 C.3     1  UNL1        0.0270
@<TRIPOS>BOND
     1    24    25    1
     2    25    26    1
     3    25    21    1
     4    21    22    2
     5    21    23    2
     6    21    19    1
     7     1    19    1
     8     1     2    1
     9     2     3    1
    10     3     4    1
    11     4     5    1
    12     5     6    1
    13     6     7   ar
    14     7     8   ar
    15     8     9   ar
    16     9    12    1
    17    12    13   ar
    18    13    14   ar
    19    14    15   ar
    20    15    16    1
    21    15    17   ar
    22    17    18   ar
    23     9    10   ar
    24    10    11   ar
    25     5     1    1
    26    11     6   ar
    27    18    12   ar
    28    19    20    1
@<TRIPOS>MOLECULE
*****
 26 28 0 0 0
SMALL
GASTEIGER

@<TRIPOS>ATOM
      1 C         137.7710  140.3717  161.7560 C.3     1  UNL1        0.1111
      2 C         137.5773  139.9153  160.3404 C.3     1  UNL1        0.1598
      3 O         138.5813  138.8368  160.0595 O.3     1  UNL1       -0.3519
      4 C         139.3955  138.6266  161.3017 C.3     1  UNL1        0.1480
      5 C         138.8947  139.5753  162.3502 C.3     1  UNL1        0.0704
      6 C         139.4246  139.7047  163.7475 C.ar    1  UNL1       -0.0186
      7 C         140.6608  140.5131  164.0090 C.ar    1  UNL1       -0.0042
      8 C         141.1906  140.6425  165.4063 C.ar    1  UNL1       -0.0003
      9 C         140.4843  139.9635  166.5421 C.ar    1  UNL1        0.0015
     10 C         139.2481  139.1552  166.2807 C.ar    1  UNL1       -0.0003
     11 C         138.7183  139.0258  164.8834 C.ar    1  UNL1       -0.0042
     12 C         141.0142  140.0930  167.9395 C.ar    1  UNL1        0.0193
     13 C         140.0653  140.2629  169.0887 C.ar    1  UNL1        0.0055
     14 C         140.5953  140.3924  170.4860 C.ar    1  UNL1        0.0497
     15 C         142.0740  140.3518  170.7341 C.ar    1  UNL1        0.2223
     16 F         142.6040  140.4813  172.1313 F       1  UNL1       -0.1832
     17 N         143.0229  140.1819  169.5848 N.ar    1  UNL1       -0.2165
     18 C         142.4930  140.0524  168.1875 C.ar    1  UNL1        0.1012
     19 N         136.9799  141.4374  162.4548 N.3     1  UNL1       -0.1819
     20 H         136.2399  141.7230  161.8136 H       1  UNL1        0.1485
     21 S         137.6582  142.6920  162.9195 S.O2    1  UNL1        0.0391
     22 O         137.4581  142.2720  164.3455 O.2     1  UNL1       -0.1576
     23 O         137.8583  143.1120  161.4935 O.2     1  UNL1       -0.1576
     24 C         139.1327  144.7712  162.4168 C.3     1  UNL1        0.0270
     25 C         138.3364  143.9466  163.3842 C.3     1  UNL1        0.1457
     26 C         138.2185  144.3765  164.8164 C.3     1  UNL1        0.0270
@<TRIPOS>BOND
     1    24    25    1
     2    25    26    1
     3    25    21    1
     4    21    22    2
     5    21    23    2
     6    21    19    1
     7     1    19    1
     8     1     2    1
     9     2     3    1
    10     3     4    1
    11     4     5    1
    12     5     6    1
    13     6     7   ar
    14     7     8   ar
    15     8     9   ar
    16     9    12    1
    17    12    13   ar
    18    13    14   ar
    19    14    15   ar
    20    15    16    1
    21    15    17   ar
    22    17    18   ar
    23     9    10   ar
    24    10    11   ar
    25     5     1    1
    26    11     6   ar
    27    18    12   ar
    28    19    20    1
@<TRIPOS>MOLECULE
*****
 26 28 0 0 0
SMALL
GASTEIGER

@<TRIPOS>ATOM
      1 C         141.6713  140.9680  169.6595 C.3     1  UNL1        0.1111
      2 C         141.6771  141.1081  171.1529 C.3     1  UNL1        0.1598
      3 O         140.2524  141.1314  171.6219 O.3     1  UNL1       -0.3519
      4 C         139.3662  141.0057  170.4182 C.3     1  UNL1        0.1480
      5 C         140.2431  140.9047  169.2054 C.3     1  UNL1        0.0704
      6 C         139.7740  140.7649  167.7874 C.ar    1  UNL1       -0.0186
      7 C         140.0405  141.8603  166.7979 C.ar    1  UNL1       -0.0042
      8 C         139.5715  141.7205  165.3800 C.ar    1  UNL1       -0.0003
      9 C         138.8360  140.4853  164.9517 C.ar    1  UNL1        0.0015
     10 C         138.5695  139.3900  165.9412 C.ar    1  UNL1       -0.0003
     11 C         139.0386  139.5298  167.3591 C.ar    1  UNL1       -0.0042
     12 C         138.3670  140.3456  163.5337 C.ar    1  UNL1        0.0193
     13 C         138.3132  138.9911  162.8916 C.ar    1  UNL1        0.0055
     14 C         137.8441  138.8513  161.4736 C.ar    1  UNL1        0.0497
     15 C         137.4289  140.0661  160.6978 C.ar    1  UNL1        0.2223
     16 F         136.9599  139.9264  159.2800 F       1  UNL1       -0.1832
     17 N         137.4828  141.4207  161.3400 N.ar    1  UNL1       -0.2165
     18 C         137.9518  141.5604  162.7579 C.ar    1  UNL1        0.1012
     19 N         142.8813  140.9027  168.7754 N.3     1  UNL1       -0.1819
     20 H         142.9380  141.7967  168.2875 H       1  UNL1        0.1485
     21 S         142.9901  139.8317  167.7309 S.O2    1  UNL1        0.0391
     22 O         143.0659  140.8817  166.6623 O.2     1  UNL1       -0.1576
     23 O         142.9144  138.7818  168.7994 O.2     1  UNL1       -0.1576
     24 C         142.1685  138.7633  165.5098 C.3     1  UNL1        0.0270
     25 C         143.0990  138.7608  166.6863 C.3     1  UNL1        0.1457
     26 C         144.1384  137.6874  166.8181 C.3     1  UNL1        0.0270
@<TRIPOS>BOND
     1    24    25    1
     2    25    26    1
     3    25    21    1
     4    21    22    2
     5    21    23    2
     6    21    19    1
     7     1    19    1
     8     1     2    1
     9     2     3    1
    10     3     4    1
    11     4     5    1
    12     5     6    1
    13     6     7   ar
    14     7     8   ar
    15     8     9   ar
    16     9    12    1
    17    12    13   ar
    18    13    14   ar
    19    14    15   ar
    20    15    16    1
    21    15    17   ar
    22    17    18   ar
    23     9    10   ar
    24    10    11   ar
    25     5     1    1
    26    11     6   ar
    27    18    12   ar
    28    19    20    1
@<TRIPOS>MOLECULE
*****
 26 28 0 0 0
SMALL
GASTEIGER

@<TRIPOS>ATOM
      1 C         140.8542  141.1317  169.1064 C.3     1  UNL1        0.1111
      2 C         140.8976  141.1498  170.6057 C.3     1  UNL1        0.1598
      3 O         140.8758  142.5815  171.0528 O.3     1  UNL1       -0.3519
      4 C         140.8188  143.4482  169.8299 C.3     1  UNL1        0.1480
      5 C         140.8055  142.5522  168.6269 C.3     1  UNL1        0.0704
      6 C         140.7528  142.9984  167.1958 C.ar    1  UNL1       -0.0186
      7 C         139.5288  143.6875  166.6696 C.ar    1  UNL1       -0.0042
      8 C         139.4761  144.1336  165.2385 C.ar    1  UNL1       -0.0003
      9 C         140.6474  143.8907  164.3335 C.ar    1  UNL1        0.0015
     10 C         141.8715  143.2016  164.8597 C.ar    1  UNL1       -0.0003
     11 C         141.9241  142.7554  166.2908 C.ar    1  UNL1       -0.0042
     12 C         140.5947  144.3369  162.9024 C.ar    1  UNL1        0.0193
     13 C         141.5432  143.7512  161.8987 C.ar    1  UNL1        0.0055
     14 C         141.4904  144.1974  160.4675 C.ar    1  UNL1        0.0497
     15 C         140.4892  145.2293  160.0401 C.ar    1  UNL1        0.2223
     16 F         140.4364  145.6755  158.6090 F       1  UNL1       -0.1832
     17 N         139.5407  145.8150  161.0438 N.ar    1  UNL1       -0.2165
     18 C         139.5935  145.3688  162.4749 C.ar    1  UNL1        0.1012
     19 N         140.8588  139.9080  168.2390 N.3     1  UNL1       -0.1819
     20 H         141.6585  139.9946  167.6118 H       1  UNL1        0.1485
     21 S         139.6689  139.5915  167.3823 S.O2    1  UNL1        0.0391
     22 O         138.7998  139.5516  168.6042 O.2     1  UNL1       -0.1576
     23 O         140.5380  139.6313  166.1604 O.2     1  UNL1       -0.1576
     24 C         138.2416  140.0420  165.2586 C.3     1  UNL1        0.0270
     25 C         138.4790  139.2749  166.5256 C.3     1  UNL1        0.1457
     26 C         137.5265  138.1913  166.9359 C.3     1  UNL1        0.0270
@<TRIPOS>BOND
     1    24    25    1
     2    25    26    1
     3    25    21    1
     4    21    22    2
     5    21    23    2
     6    21    19    1
     7     1    19    1
     8     1     2    1
     9     2     3    1
    10     3     4    1
    11     4     5    1
    12     5     6    1
    13     6     7   ar
    14     7     8   ar
    15     8     9   ar
    16     9    12    1
    17    12    13   ar
    18    13    14   ar
    19    14    15   ar
    20    15    16    1
    21    15    17   ar
    22    17    18   ar
    23     9    10   ar
    24    10    11   ar
    25     5     1    1
    26    11     6   ar
    27    18    12   ar
    28    19    20    1
@<TRIPOS>MOLECULE
*****
 26 28 0 0 0
SMALL
GASTEIGER

@<TRIPOS>ATOM
      1 C         140.1780  141.3452  169.4476 C.3     1  UNL1        0.1111
      2 C         139.6132  141.7952  170.7623 C.3     1  UNL1        0.1598
      3 O         139.7959  143.2808  170.8612 O.3     1  UNL1       -0.3519
      4 C         140.4736  143.7489  169.6076 C.3     1  UNL1        0.1480
      5 C         140.7098  142.5526  168.7339 C.3     1  UNL1        0.0704
      6 C         141.3632  142.5621  167.3837 C.ar    1  UNL1       -0.0186
      7 C         140.5700  142.9448  166.1694 C.ar    1  UNL1       -0.0042
      8 C         141.2234  142.9543  164.8192 C.ar    1  UNL1       -0.0003
      9 C         142.6698  142.5811  164.6833 C.ar    1  UNL1        0.0015
     10 C         143.4629  142.1984  165.8975 C.ar    1  UNL1       -0.0003
     11 C         142.8096  142.1889  167.2477 C.ar    1  UNL1       -0.0042
     12 C         143.3231  142.5906  163.3330 C.ar    1  UNL1        0.0193
     13 C         142.6191  143.2123  162.1636 C.ar    1  UNL1        0.0055
     14 C         143.2724  143.2219  160.8133 C.ar    1  UNL1        0.0497
     15 C         144.6298  142.6096  160.6326 C.ar    1  UNL1        0.2223
     16 F         145.2831  142.6191  159.2824 F       1  UNL1       -0.1832
     17 N         145.3338  141.9878  161.8021 N.ar    1  UNL1       -0.2165
     18 C         144.6805  141.9783  163.1523 C.ar    1  UNL1        0.1012
     19 N         140.2061  139.9353  168.9364 N.3     1  UNL1       -0.1819
     20 H         141.1487  139.7687  168.5838 H       1  UNL1        0.1485
     21 S         139.2578  139.5106  167.8547 S.O2    1  UNL1        0.0391
     22 O         138.1410  139.4574  168.8546 O.2     1  UNL1       -0.1576
     23 O         140.3745  139.5638  166.8547 O.2     1  UNL1       -0.1576
     24 C         137.4348  137.8836  166.9718 C.3     1  UNL1        0.0270
     25 C         138.3094  139.0859  166.7729 C.3     1  UNL1        0.1457
     26 C         138.2356  139.8635  165.4924 C.3     1  UNL1        0.0270
@<TRIPOS>BOND
     1    24    25    1
     2    25    26    1
     3    25    21    1
     4    21    22    2
     5    21    23    2
     6    21    19    1
     7     1    19    1
     8     1     2    1
     9     2     3    1
    10     3     4    1
    11     4     5    1
    12     5     6    1
    13     6     7   ar
    14     7     8   ar
    15     8     9   ar
    16     9    12    1
    17    12    13   ar
    18    13    14   ar
    19    14    15   ar
    20    15    16    1
    21    15    17   ar
    22    17    18   ar
    23     9    10   ar
    24    10    11   ar
    25     5     1    1
    26    11     6   ar
    27    18    12   ar
    28    19    20    1
@<TRIPOS>MOLECULE
*****
 26 28 0 0 0
SMALL
GASTEIGER

@<TRIPOS>ATOM
      1 C         139.7002  143.9026  160.8646 C.3     1  UNL1        0.1111
      2 C         140.2355  144.5534  159.6236 C.3     1  UNL1        0.1598
      3 O         141.6525  144.9666  159.8913 O.3     1  UNL1       -0.3519
      4 C         141.9928  144.5711  161.2976 C.3     1  UNL1        0.1480
      5 C         140.7863  143.9135  161.8991 C.3     1  UNL1        0.0704
      6 C         140.6838  143.3635  163.2909 C.ar    1  UNL1       -0.0186
      7 C         139.8958  144.1009  164.3327 C.ar    1  UNL1       -0.0042
      8 C         139.7934  143.5508  165.7244 C.ar    1  UNL1       -0.0003
      9 C         140.4789  142.2633  166.0743 C.ar    1  UNL1        0.0015
     10 C         141.2669  141.5259  165.0325 C.ar    1  UNL1       -0.0003
     11 C         141.3693  142.0760  163.6408 C.ar    1  UNL1       -0.0042
     12 C         140.3764  141.7132  167.4661 C.ar    1  UNL1        0.0193
     13 C         140.9199  142.4965  168.6240 C.ar    1  UNL1        0.0055
     14 C         140.8175  141.9465  170.0158 C.ar    1  UNL1        0.0497
     15 C         140.1715  140.6130  170.2496 C.ar    1  UNL1        0.2223
     16 F         140.0690  140.0629  171.6412 F       1  UNL1       -0.1832
     17 N         139.6279  139.8297  169.0915 N.ar    1  UNL1       -0.2165
     18 C         139.7304  140.3798  167.6998 C.ar    1  UNL1        0.1012
     19 N         138.3210  143.3396  161.0400 N.3     1  UNL1       -0.1819
     20 H         137.8172  143.9806  161.6530 H       1  UNL1        0.1485
     21 S         138.1392  141.9637  161.6088 S.O2    1  UNL1        0.0391
     22 O         139.0210  141.4024  160.5329 O.2     1  UNL1       -0.1576
     23 O         137.2575  142.5248  162.6847 O.2     1  UNL1       -0.1576
     24 C         138.0180  140.3753  163.6612 C.3     1  UNL1        0.0270
     25 C         137.9575  140.5876  162.1776 C.3     1  UNL1        0.1457
     26 C         137.7152  139.4239  161.2627 C.3     1  UNL1        0.0270
@<TRIPOS>BOND
     1    24    25    1
     2    25    26    1
     3    25    21    1
     4    21    22    2
     5    21    23    2
     6    21    19    1
     7     1    19    1
     8     1     2    1
     9     2     3    1
    10     3     4    1
    11     4     5    1
    12     5     6    1
    13     6     7   ar
    14     7     8   ar
    15     8     9   ar
    16     9    12    1
    17    12    13   ar
    18    13    14   ar
    19    14    15   ar
    20    15    16    1
    21    15    17   ar
    22    17    18   ar
    23     9    10   ar
    24    10    11   ar
    25     5     1    1
    26    11     6   ar
    27    18    12   ar
    28    19    20    1
@<TRIPOS>MOLECULE
*****
 26 28 0 0 0
SMALL
GASTEIGER

@<TRIPOS>ATOM
      1 C         139.7720  138.5768  161.1112 C.3     1  UNL1        0.1111
      2 C         139.2999  138.5926  159.6876 C.3     1  UNL1        0.1598
      3 O         138.3777  139.7634  159.5179 O.3     1  UNL1       -0.3519
      4 C         138.2800  140.4713  160.8368 C.3     1  UNL1        0.1480
      5 C         139.1417  139.7380  161.8215 C.3     1  UNL1        0.0704
      6 C         139.3386  140.1019  163.2633 C.ar    1  UNL1       -0.0186
      7 C         140.2786  141.2099  163.6356 C.ar    1  UNL1       -0.0042
      8 C         140.4754  141.5737  165.0774 C.ar    1  UNL1       -0.0003
      9 C         139.7322  140.8296  166.1469 C.ar    1  UNL1        0.0015
     10 C         138.7921  139.7216  165.7747 C.ar    1  UNL1       -0.0003
     11 C         138.5953  139.3578  164.3329 C.ar    1  UNL1       -0.0042
     12 C         139.9290  141.1935  167.5888 C.ar    1  UNL1        0.0193
     13 C         140.4755  142.5418  167.9542 C.ar    1  UNL1        0.0055
     14 C         140.6723  142.9057  169.3960 C.ar    1  UNL1        0.0497
     15 C         140.3227  141.9213  170.4725 C.ar    1  UNL1        0.2223
     16 F         140.5195  142.2852  171.9142 F       1  UNL1       -0.1832
     17 N         139.7762  140.5730  170.1070 N.ar    1  UNL1       -0.2165
     18 C         139.5794  140.2092  168.6652 C.ar    1  UNL1        0.1012
     19 N         140.7099  137.5757  161.7180 N.3     1  UNL1       -0.1819
     20 H         140.1341  136.8980  162.2175 H       1  UNL1        0.1485
     21 S         141.7738  138.0279  162.6738 S.O2    1  UNL1        0.0391
     22 O         141.2037  137.1312  163.7326 O.2     1  UNL1       -0.1576
     23 O         142.3439  138.9245  161.6151 O.2     1  UNL1       -0.1576
     24 C         144.1019  139.0961  163.1081 C.3     1  UNL1        0.0270
     25 C         142.8377  138.4800  163.6297 C.3     1  UNL1        0.1457
     26 C         142.6374  138.3159  165.1071 C.3     1  UNL1        0.0270
@<TRIPOS>BOND
     1    24    25    1
     2    25    26    1
     3    25    21    1
     4    21    22    2
     5    21    23    2
     6    21    19    1
     7     1    19    1
     8     1     2    1
     9     2     3    1
    10     3     4    1
    11     4     5    1
    12     5     6    1
    13     6     7   ar
    14     7     8   ar
    15     8     9   ar
    16     9    12    1
    17    12    13   ar
    18    13    14   ar
    19    14    15   ar
    20    15    16    1
    21    15    17   ar
    22    17    18   ar
    23     9    10   ar
    24    10    11   ar
    25     5     1    1
    26    11     6   ar
    27    18    12   ar
    28    19    20    1
