@<TRIPOS>MOLECULE
*****
 33 35 0 0 0
SMALL
GASTEIGER

@<TRIPOS>ATOM
      1 C         142.4973  140.4204  168.0281 C.3     1  UNL1        0.0782
      2 C         142.7494  139.6140  166.7887 C.3     1  UNL1        0.0372
      3 C         143.3442  140.2676  165.5768 C.3     1  UNL1        0.0741
      4 N         143.6870  141.7277  165.6042 N.3     1  UNL1       -0.2689
      5 C         143.4349  142.5341  166.8436 C.3     1  UNL1        0.0741
      6 C         142.8400  141.8804  168.0556 C.3     1  UNL1        0.0372
      7 C         140.4571  139.9852  169.5768 C.2     1  UNL1        0.2301
      8 O         139.8623  139.3315  170.7888 O.2     1  UNL1       -0.2745
      9 N         141.9025  139.7668  169.2401 N.am    1  UNL1       -0.2790
     10 C         142.7530  138.8947  170.1155 C.3     1  UNL1        0.1148
     11 C         139.6066  140.8572  168.7014 C.3     1  UNL1        0.1116
     12 C         138.6645  139.5814  164.4902 C.ar    1  UNL1        0.0533
     13 C         139.3105  140.9111  164.7443 C.ar    1  UNL1        0.0042
     14 C         139.6246  141.3363  166.1480 C.ar    1  UNL1       -0.0036
     15 C         139.2926  140.4319  167.2977 C.ar    1  UNL1       -0.0131
     16 C         138.6466  139.1023  167.0436 C.ar    1  UNL1       -0.0036
     17 C         138.3326  138.6770  165.6398 C.ar    1  UNL1        0.0042
     18 C         137.2842  139.6535  160.7700 C.3     1  UNL1        0.1109
     19 N         137.5982  140.0787  162.1738 N.am    1  UNL1       -0.2992
     20 C         138.3505  139.1562  163.0864 C.2     1  UNL1        0.2459
     21 O         138.7887  137.8083  162.5953 O.2     1  UNL1       -0.2701
     22 H         137.3106  140.9634  162.4961 H       1  UNL1        0.1498
     23 C         144.2818  142.3813  164.3922 C.3     1  UNL1        0.0991
     24 C         143.3990  143.1136  163.4256 C.ar    1  UNL1       -0.0062
     25 C         142.4020  144.1141  163.9303 C.ar    1  UNL1       -0.0030
     26 C         141.5191  144.8464  162.9637 C.ar    1  UNL1        0.0036
     27 C         141.6334  144.5782  161.4923 C.ar    1  UNL1        0.0714
     28 C         142.6304  143.5776  160.9875 C.ar    1  UNL1        0.0036
     29 C         143.5133  142.8453  161.9541 C.ar    1  UNL1       -0.0030
     30 C         140.7505  145.3105  160.5257 C.3     1  UNL1        0.4186
     31 F         139.8677  146.0428  159.5591 F       1  UNL1       -0.1659
     32 F         140.2298  146.1614  161.6459 F       1  UNL1       -0.1659
     33 F         141.2712  144.4596  159.4055 F       1  UNL1       -0.1659
@<TRIPOS>BOND
     1    18    19    1
     2    19    20   am
     3    20    21    2
     4    20    12    1
     5    12    13   ar
     6    13    14   ar
     7    14    15   ar
     8    15    11    1
     9    11     7    1
    10     7     8    2
    11     7     9   am
    12     9    10    1
    13     9     1    1
    14     1     2    1
    15     2     3    1
    16     3     4    1
    17     4    23    1
    18    23    24    1
    19    24    25   ar
    20    25    26   ar
    21    26    27   ar
    22    27    30    1
    23    30    31    1
    24    30    32    1
    25    30    33    1
    26    27    28   ar
    27    28    29   ar
    28     4     5    1
    29     5     6    1
    30    15    16   ar
    31    16    17   ar
    32    17    12   ar
    33     6     1    1
    34    29    24   ar
    35    19    22    1
@<TRIPOS>MOLECULE
*****
 33 35 0 0 0
SMALL
GASTEIGER

@<TRIPOS>ATOM
      1 C         141.8458  144.0932  161.4750 C.3     1  UNL1        0.0782
      2 C         141.5592  142.6321  161.2930 C.3     1  UNL1        0.0372
      3 C         142.3501  141.6119  162.0568 C.3     1  UNL1        0.0741
      4 N         143.4278  142.0527  163.0026 N.3     1  UNL1       -0.2689
      5 C         143.7144  143.5138  163.1845 C.3     1  UNL1        0.0741
      6 C         142.9234  144.5340  162.4207 C.3     1  UNL1        0.0372
      7 C         139.9592  145.8776  161.3936 C.2     1  UNL1        0.2301
      8 O         139.1682  146.8979  160.6297 O.2     1  UNL1       -0.2745
      9 N         141.0548  145.1134  160.7112 N.am    1  UNL1       -0.2790
     10 C         141.3594  145.3695  159.2649 C.3     1  UNL1        0.1148
     11 C         139.6546  145.6215  162.8398 C.3     1  UNL1        0.1116
     12 C         138.6455  141.4604  164.2242 C.ar    1  UNL1        0.0533
     13 C         137.9487  142.0434  163.0307 C.ar    1  UNL1        0.0042
     14 C         138.2850  143.4304  162.5692 C.ar    1  UNL1       -0.0036
     15 C         139.3182  144.2345  163.3013 C.ar    1  UNL1       -0.0131
     16 C         140.0151  143.6515  164.4948 C.ar    1  UNL1       -0.0036
     17 C         139.6787  142.2644  164.9562 C.ar    1  UNL1        0.0042
     18 C         137.8521  138.3921  166.6130 C.3     1  UNL1        0.1109
     19 N         138.1884  139.7792  166.1515 N.am    1  UNL1       -0.2992
     20 C         138.3092  140.0733  164.6856 C.2     1  UNL1        0.2459
     21 O         138.0936  138.9804  163.6812 O.2     1  UNL1       -0.2701
     22 H         138.3299  140.4965  166.8108 H       1  UNL1        0.1498
     23 C         144.2188  141.0325  163.7664 C.3     1  UNL1        0.0991
     24 C         143.7337  140.5542  165.1028 C.ar    1  UNL1       -0.0062
     25 C         143.2119  141.5382  166.1074 C.ar    1  UNL1       -0.0030
     26 C         142.7268  141.0599  167.4437 C.ar    1  UNL1        0.0036
     27 C         142.7636  139.5976  167.7755 C.ar    1  UNL1        0.0714
     28 C         143.2854  138.6134  166.7709 C.ar    1  UNL1        0.0036
     29 C         143.7705  139.0917  165.4345 C.ar    1  UNL1       -0.0030
     30 C         142.2785  139.1193  169.1119 C.3     1  UNL1        0.4186
     31 F         141.7934  138.6410  170.4483 F       1  UNL1       -0.1659
     32 F         141.2981  140.2534  169.1620 F       1  UNL1       -0.1659
     33 F         143.2589  137.9852  169.0619 F       1  UNL1       -0.1659
@<TRIPOS>BOND
     1    18    19    1
     2    19    20   am
     3    20    21    2
     4    20    12    1
     5    12    13   ar
     6    13    14   ar
     7    14    15   ar
     8    15    11    1
     9    11     7    1
    10     7     8    2
    11     7     9   am
    12     9    10    1
    13     9     1    1
    14     1     2    1
    15     2     3    1
    16     3     4    1
    17     4    23    1
    18    23    24    1
    19    24    25   ar
    20    25    26   ar
    21    26    27   ar
    22    27    30    1
    23    30    31    1
    24    30    32    1
    25    30    33    1
    26    27    28   ar
    27    28    29   ar
    28     4     5    1
    29     5     6    1
    30    15    16   ar
    31    16    17   ar
    32    17    12   ar
    33     6     1    1
    34    29    24   ar
    35    19    22    1
@<TRIPOS>MOLECULE
*****
 33 35 0 0 0
SMALL
GASTEIGER

@<TRIPOS>ATOM
      1 C         141.3617  142.5838  167.7775 C.3     1  UNL1        0.0782
      2 C         142.8270  142.3509  167.5569 C.3     1  UNL1        0.0372
      3 C         143.4018  142.4459  166.1747 C.3     1  UNL1        0.0741
      4 N         142.5112  142.7739  165.0130 N.3     1  UNL1       -0.2689
      5 C         141.0459  143.0068  165.2336 C.3     1  UNL1        0.0741
      6 C         140.4712  142.9117  166.6159 C.3     1  UNL1        0.0372
      7 C         140.6014  141.1470  169.8042 C.2     1  UNL1        0.2301
      8 O         140.0266  141.0520  171.1865 O.2     1  UNL1       -0.2745
      9 N         140.7869  142.4887  169.1597 N.am    1  UNL1       -0.2790
     10 C         140.3976  143.7354  169.8975 C.3     1  UNL1        0.1148
     11 C         140.9907  139.9004  169.0666 C.3     1  UNL1        0.1116
     12 C         139.2956  139.0825  164.9790 C.ar    1  UNL1        0.0533
     13 C         140.7799  139.0587  165.1940 C.ar    1  UNL1        0.0042
     14 C         141.3449  139.3313  166.5565 C.ar    1  UNL1       -0.0036
     15 C         140.4256  139.6277  167.7041 C.ar    1  UNL1       -0.0131
     16 C         138.9413  139.6516  167.4891 C.ar    1  UNL1       -0.0036
     17 C         138.3763  139.3790  166.1266 C.ar    1  UNL1        0.0042
     18 C         137.6325  139.6668  161.4234 C.3     1  UNL1        0.1109
     19 N         138.1976  139.9394  162.7859 N.am    1  UNL1       -0.2992
     20 C         138.7305  138.8099  163.6165 C.2     1  UNL1        0.2459
     21 O         138.6985  137.4078  163.0847 O.2     1  UNL1       -0.2701
     22 H         138.2186  140.8597  163.1349 H       1  UNL1        0.1498
     23 C         143.0860  142.8689  163.6308 C.3     1  UNL1        0.0991
     24 C         143.0559  141.6757  162.7223 C.ar    1  UNL1       -0.0062
     25 C         144.3386  141.0288  162.2911 C.ar    1  UNL1       -0.0030
     26 C         144.3084  139.8356  161.3826 C.ar    1  UNL1        0.0036
     27 C         142.9955  139.2894  160.9053 C.ar    1  UNL1        0.0714
     28 C         141.7127  139.9363  161.3365 C.ar    1  UNL1        0.0036
     29 C         141.7429  141.1295  162.2450 C.ar    1  UNL1       -0.0030
     30 C         142.9653  138.0962  159.9968 C.3     1  UNL1        0.4186
     31 F         142.9352  136.9030  159.0883 F       1  UNL1       -0.1659
     32 F         143.7960  137.3263  160.9803 F       1  UNL1       -0.1659
     33 F         142.1347  138.8661  159.0133 F       1  UNL1       -0.1659
@<TRIPOS>BOND
     1    18    19    1
     2    19    20   am
     3    20    21    2
     4    20    12    1
     5    12    13   ar
     6    13    14   ar
     7    14    15   ar
     8    15    11    1
     9    11     7    1
    10     7     8    2
    11     7     9   am
    12     9    10    1
    13     9     1    1
    14     1     2    1
    15     2     3    1
    16     3     4    1
    17     4    23    1
    18    23    24    1
    19    24    25   ar
    20    25    26   ar
    21    26    27   ar
    22    27    30    1
    23    30    31    1
    24    30    32    1
    25    30    33    1
    26    27    28   ar
    27    28    29   ar
    28     4     5    1
    29     5     6    1
    30    15    16   ar
    31    16    17   ar
    32    17    12   ar
    33     6     1    1
    34    29    24   ar
    35    19    22    1
@<TRIPOS>MOLECULE
*****
 33 35 0 0 0
SMALL
GASTEIGER

@<TRIPOS>ATOM
      1 C         141.5243  138.5789  160.5064 C.3     1  UNL1        0.0782
      2 C         142.0223  137.6804  161.5995 C.3     1  UNL1        0.0372
      3 C         141.1423  137.3692  162.7737 C.3     1  UNL1        0.0741
      4 N         139.7644  137.9564  162.8548 N.3     1  UNL1       -0.2689
      5 C         139.2665  138.8549  161.7617 C.3     1  UNL1        0.0741
      6 C         140.1465  139.1661  160.5875 C.3     1  UNL1        0.0372
      7 C         143.5467  139.8501  159.4847 C.2     1  UNL1        0.2301
      8 O         144.4267  140.1613  158.3104 O.2     1  UNL1       -0.2745
      9 N         142.4043  138.8901  159.3322 N.am    1  UNL1       -0.2790
     10 C         142.1418  138.2413  158.0054 C.3     1  UNL1        0.1148
     11 C         143.8093  140.4988  160.8114 C.3     1  UNL1        0.1116
     12 C         140.6819  143.1378  162.6837 C.ar    1  UNL1        0.0533
     13 C         141.0205  143.2911  161.2305 C.ar    1  UNL1        0.0042
     14 C         142.0629  142.4114  160.6064 C.ar    1  UNL1       -0.0036
     15 C         142.7668  141.3784  161.4355 C.ar    1  UNL1       -0.0131
     16 C         142.4282  141.2251  162.8887 C.ar    1  UNL1       -0.0036
     17 C         141.3858  142.1048  163.5128 C.ar    1  UNL1        0.0042
     18 C         138.4805  144.9786  165.4251 C.3     1  UNL1        0.1109
     19 N         139.5230  144.0989  164.8010 N.am    1  UNL1       -0.2992
     20 C         139.6394  144.0174  163.3078 C.2     1  UNL1        0.2459
     21 O         138.7135  144.8156  162.4387 O.2     1  UNL1       -0.2701
     22 H         140.1307  143.5750  165.3715 H       1  UNL1        0.1498
     23 C         138.8844  137.6452  164.0290 C.3     1  UNL1        0.0991
     24 C         139.0566  138.3971  165.3155 C.ar    1  UNL1       -0.0062
     25 C         140.2991  139.2033  165.5525 C.ar    1  UNL1       -0.0030
     26 C         140.4713  139.9552  166.8389 C.ar    1  UNL1        0.0036
     27 C         139.4009  139.9011  167.8883 C.ar    1  UNL1        0.0714
     28 C         138.1583  139.0949  167.6514 C.ar    1  UNL1        0.0036
     29 C         137.9862  138.3429  166.3649 C.ar    1  UNL1       -0.0030
     30 C         139.5731  140.6530  169.1748 C.3     1  UNL1        0.4186
     31 F         139.7453  141.4050  170.4612 F       1  UNL1       -0.1659
     32 F         138.2650  140.1092  169.6677 F       1  UNL1       -0.1659
     33 F         140.8813  141.1968  168.6818 F       1  UNL1       -0.1659
@<TRIPOS>BOND
     1    18    19    1
     2    19    20   am
     3    20    21    2
     4    20    12    1
     5    12    13   ar
     6    13    14   ar
     7    14    15   ar
     8    15    11    1
     9    11     7    1
    10     7     8    2
    11     7     9   am
    12     9    10    1
    13     9     1    1
    14     1     2    1
    15     2     3    1
    16     3     4    1
    17     4    23    1
    18    23    24    1
    19    24    25   ar
    20    25    26   ar
    21    26    27   ar
    22    27    30    1
    23    30    31    1
    24    30    32    1
    25    30    33    1
    26    27    28   ar
    27    28    29   ar
    28     4     5    1
    29     5     6    1
    30    15    16   ar
    31    16    17   ar
    32    17    12   ar
    33     6     1    1
    34    29    24   ar
    35    19    22    1
@<TRIPOS>MOLECULE
*****
 33 35 0 0 0
SMALL
GASTEIGER

@<TRIPOS>ATOM
      1 C         143.7803  141.2781  161.9293 C.3     1  UNL1        0.0782
      2 C         144.9776  141.0722  162.8092 C.3     1  UNL1        0.0372
      3 C         144.9714  141.5891  164.2172 C.3     1  UNL1        0.0741
      4 N         143.7678  142.3119  164.7456 N.3     1  UNL1       -0.2689
      5 C         142.5705  142.5178  163.8657 C.3     1  UNL1        0.0741
      6 C         142.5768  142.0008  162.4576 C.3     1  UNL1        0.0372
      7 C         143.6758  139.2878  160.2627 C.2     1  UNL1        0.2301
      8 O         143.6820  138.7709  158.8545 O.2     1  UNL1       -0.2745
      9 N         143.7865  140.7612  160.5213 N.am    1  UNL1       -0.2790
     10 C         143.9036  141.7177  159.3717 C.3     1  UNL1        0.1148
     11 C         143.5587  138.3313  161.4122 C.3     1  UNL1        0.1116
     12 C         140.0560  138.6098  164.2234 C.ar    1  UNL1        0.0533
     13 C         141.4374  138.3918  164.7657 C.ar    1  UNL1        0.0042
     14 C         142.6050  138.2990  163.8286 C.ar    1  UNL1       -0.0036
     15 C         142.3912  138.4241  162.3493 C.ar    1  UNL1       -0.0131
     16 C         141.0097  138.6422  161.8070 C.ar    1  UNL1       -0.0036
     17 C         139.8422  138.7350  162.7441 C.ar    1  UNL1        0.0042
     18 C         137.3407  137.6151  166.9415 C.3     1  UNL1        0.1109
     19 N         138.5083  137.5223  166.0044 N.am    1  UNL1       -0.2992
     20 C         138.8884  138.7027  165.1605 C.2     1  UNL1        0.2459
     21 O         138.1010  139.9759  165.2538 O.2     1  UNL1       -0.2701
     22 H         139.0251  136.6866  165.9432 H       1  UNL1        0.1498
     23 C         143.7616  142.8288  166.1536 C.3     1  UNL1        0.0991
     24 C         142.9359  142.1422  167.2010 C.ar    1  UNL1       -0.0062
     25 C         143.2316  142.3653  168.6545 C.ar    1  UNL1       -0.0030
     26 C         142.4060  141.6788  169.7018 C.ar    1  UNL1        0.0036
     27 C         141.2846  140.7691  169.2957 C.ar    1  UNL1        0.0714
     28 C         140.9888  140.5460  167.8421 C.ar    1  UNL1        0.0036
     29 C         141.8145  141.2325  166.7947 C.ar    1  UNL1       -0.0030
     30 C         140.4589  140.0826  170.3430 C.3     1  UNL1        0.4186
     31 F         139.6333  139.3960  171.3903 F       1  UNL1       -0.1659
     32 F         139.5029  141.2384  170.3470 F       1  UNL1       -0.1659
     33 F         141.4150  138.9267  170.3390 F       1  UNL1       -0.1659
@<TRIPOS>BOND
     1    18    19    1
     2    19    20   am
     3    20    21    2
     4    20    12    1
     5    12    13   ar
     6    13    14   ar
     7    14    15   ar
     8    15    11    1
     9    11     7    1
    10     7     8    2
    11     7     9   am
    12     9    10    1
    13     9     1    1
    14     1     2    1
    15     2     3    1
    16     3     4    1
    17     4    23    1
    18    23    24    1
    19    24    25   ar
    20    25    26   ar
    21    26    27   ar
    22    27    30    1
    23    30    31    1
    24    30    32    1
    25    30    33    1
    26    27    28   ar
    27    28    29   ar
    28     4     5    1
    29     5     6    1
    30    15    16   ar
    31    16    17   ar
    32    17    12   ar
    33     6     1    1
    34    29    24   ar
    35    19    22    1
@<TRIPOS>MOLECULE
*****
 33 35 0 0 0
SMALL
GASTEIGER

@<TRIPOS>ATOM
      1 C         140.3946  139.2992  160.0011 C.3     1  UNL1        0.0782
      2 C         140.5314  140.6711  160.5921 C.3     1  UNL1        0.0372
      3 C         139.6919  141.0672  161.7703 C.3     1  UNL1        0.0741
      4 N         138.7155  140.0915  162.3575 N.3     1  UNL1       -0.2689
      5 C         138.5787  138.7197  161.7664 C.3     1  UNL1        0.0741
      6 C         139.4183  138.3236  160.5882 C.3     1  UNL1        0.0372
      7 C         142.4296  138.0181  159.0174 C.2     1  UNL1        0.2301
      8 O         143.2692  137.6220  157.8391 O.2     1  UNL1       -0.2745
      9 N         141.2342  138.9031  158.8229 N.am    1  UNL1       -0.2790
     10 C         140.8784  139.3919  157.4501 C.3     1  UNL1        0.1148
     11 C         142.7855  137.5293  160.3901 C.3     1  UNL1        0.1116
     12 C         143.5507  140.4794  163.7009 C.ar    1  UNL1        0.0533
     13 C         142.6099  139.3322  163.9212 C.ar    1  UNL1        0.0042
     14 C         142.3548  138.3488  162.8176 C.ar    1  UNL1       -0.0036
     15 C         143.0405  138.5127  161.4937 C.ar    1  UNL1       -0.0131
     16 C         143.9814  139.6600  161.2734 C.ar    1  UNL1       -0.0036
     17 C         144.2364  140.6433  162.3769 C.ar    1  UNL1        0.0042
     18 C         144.7433  143.7482  165.6096 C.3     1  UNL1        0.1109
     19 N         144.4882  142.7648  164.5060 N.am    1  UNL1       -0.2992
     20 C         143.8058  141.4628  164.8045 C.2     1  UNL1        0.2459
     21 O         143.3784  141.1442  166.2065 O.2     1  UNL1       -0.2701
     22 H         144.7687  142.9739  163.5858 H       1  UNL1        0.1498
     23 C         137.8759  140.4877  163.5357 C.3     1  UNL1        0.0991
     24 C         138.4307  140.3728  164.9245 C.ar    1  UNL1       -0.0062
     25 C         137.9913  139.2502  165.8172 C.ar    1  UNL1       -0.0030
     26 C         138.5462  139.1353  167.2061 C.ar    1  UNL1        0.0036
     27 C         139.5404  140.1429  167.7023 C.ar    1  UNL1        0.0714
     28 C         139.9798  141.2655  166.8096 C.ar    1  UNL1        0.0036
     29 C         139.4250  141.3804  165.4207 C.ar    1  UNL1       -0.0030
     30 C         140.0952  140.0280  169.0911 C.3     1  UNL1        0.4186
     31 F         140.6500  139.9130  170.4800 F       1  UNL1       -0.1659
     32 F         138.7324  140.2959  169.6577 F       1  UNL1       -0.1659
     33 F         141.4580  139.7600  168.5246 F       1  UNL1       -0.1659
@<TRIPOS>BOND
     1    18    19    1
     2    19    20   am
     3    20    21    2
     4    20    12    1
     5    12    13   ar
     6    13    14   ar
     7    14    15   ar
     8    15    11    1
     9    11     7    1
    10     7     8    2
    11     7     9   am
    12     9    10    1
    13     9     1    1
    14     1     2    1
    15     2     3    1
    16     3     4    1
    17     4    23    1
    18    23    24    1
    19    24    25   ar
    20    25    26   ar
    21    26    27   ar
    22    27    30    1
    23    30    31    1
    24    30    32    1
    25    30    33    1
    26    27    28   ar
    27    28    29   ar
    28     4     5    1
    29     5     6    1
    30    15    16   ar
    31    16    17   ar
    32    17    12   ar
    33     6     1    1
    34    29    24   ar
    35    19    22    1
@<TRIPOS>MOLECULE
*****
 33 35 0 0 0
SMALL
GASTEIGER

@<TRIPOS>ATOM
      1 C         141.8423  138.9053  160.6788 C.3     1  UNL1        0.0782
      2 C         142.3293  140.2593  161.1027 C.3     1  UNL1        0.0372
      3 C         142.7954  140.4816  162.5110 C.3     1  UNL1        0.0741
      4 N         142.7745  139.3499  163.4954 N.3     1  UNL1       -0.2689
      5 C         142.2875  137.9960  163.0715 C.3     1  UNL1        0.0741
      6 C         141.8214  137.7737  161.6631 C.3     1  UNL1        0.0372
      7 C         139.9137  138.5155  158.9821 C.2     1  UNL1        0.2301
      8 O         139.4476  138.2932  157.5738 O.2     1  UNL1       -0.2745
      9 N         141.3762  138.6830  159.2705 N.am    1  UNL1       -0.2790
     10 C         142.3725  138.6283  158.1505 C.3     1  UNL1        0.1148
     11 C         138.9174  138.5703  160.1020 C.3     1  UNL1        0.1116
     12 C         138.4100  142.3573  162.4791 C.ar    1  UNL1        0.0533
     13 C         138.4004  141.0284  163.1745 C.ar    1  UNL1        0.0042
     14 C         138.5695  139.7660  162.3822 C.ar    1  UNL1       -0.0036
     15 C         138.7483  139.8326  160.8944 C.ar    1  UNL1       -0.0131
     16 C         138.7579  141.1616  160.1990 C.ar    1  UNL1       -0.0036
     17 C         138.5888  142.4240  160.9913 C.ar    1  UNL1        0.0042
     18 C         138.5125  144.9329  165.4967 C.3     1  UNL1        0.1109
     19 N         138.6816  143.6706  164.7043 N.am    1  UNL1       -0.2992
     20 C         138.2409  143.6197  163.2715 C.2     1  UNL1        0.2459
     21 O         137.6310  144.8312  162.6310 O.2     1  UNL1       -0.2701
     22 H         139.0819  142.8754  165.1247 H       1  UNL1        0.1498
     23 C         143.2406  139.5722  164.9037 C.3     1  UNL1        0.0991
     24 C         142.2392  139.7738  166.0021 C.ar    1  UNL1       -0.0062
     25 C         142.6478  139.5864  167.4332 C.ar    1  UNL1       -0.0030
     26 C         141.6465  139.7879  168.5316 C.ar    1  UNL1        0.0036
     27 C         140.2365  140.1769  168.1991 C.ar    1  UNL1        0.0714
     28 C         139.8279  140.3644  166.7680 C.ar    1  UNL1        0.0036
     29 C         140.8292  140.1628  165.6695 C.ar    1  UNL1       -0.0030
     30 C         139.2351  140.3785  169.2975 C.3     1  UNL1        0.4186
     31 F         138.2338  140.5801  170.3960 F       1  UNL1       -0.1659
     32 F         140.1945  141.2890  170.0050 F       1  UNL1       -0.1659
     33 F         138.2758  139.4680  168.5900 F       1  UNL1       -0.1659
@<TRIPOS>BOND
     1    18    19    1
     2    19    20   am
     3    20    21    2
     4    20    12    1
     5    12    13   ar
     6    13    14   ar
     7    14    15   ar
     8    15    11    1
     9    11     7    1
    10     7     8    2
    11     7     9   am
    12     9    10    1
    13     9     1    1
    14     1     2    1
    15     2     3    1
    16     3     4    1
    17     4    23    1
    18    23    24    1
    19    24    25   ar
    20    25    26   ar
    21    26    27   ar
    22    27    30    1
    23    30    31    1
    24    30    32    1
    25    30    33    1
    26    27    28   ar
    27    28    29   ar
    28     4     5    1
    29     5     6    1
    30    15    16   ar
    31    16    17   ar
    32    17    12   ar
    33     6     1    1
    34    29    24   ar
    35    19    22    1
@<TRIPOS>MOLECULE
*****
 33 35 0 0 0
SMALL
GASTEIGER

@<TRIPOS>ATOM
      1 C         138.5340  139.2180  162.4399 C.3     1  UNL1        0.0782
      2 C         138.6926  137.9410  163.2108 C.3     1  UNL1        0.0372
      3 C         138.7723  137.9739  164.7083 C.3     1  UNL1        0.0741
      4 N         138.6936  139.2839  165.4350 N.3     1  UNL1       -0.2689
      5 C         138.5351  140.5608  164.6641 C.3     1  UNL1        0.0741
      6 C         138.4553  140.5278  163.1665 C.3     1  UNL1        0.0372
      7 C         139.5933  138.6254  160.1428 C.2     1  UNL1        0.2301
      8 O         139.5135  138.5925  158.6453 O.2     1  UNL1       -0.2745
      9 N         138.4543  139.1850  160.9425 N.am    1  UNL1       -0.2790
     10 C         137.2354  139.7118  160.2445 C.3     1  UNL1        0.1148
     11 C         140.8121  138.0987  160.8407 C.3     1  UNL1        0.1116
     12 C         143.4901  140.9070  163.1193 C.ar    1  UNL1        0.0533
     13 C         142.8149  141.3691  161.8621 C.ar    1  UNL1        0.0042
     14 C         141.9223  140.4330  161.1026 C.ar    1  UNL1       -0.0036
     15 C         141.7048  139.0348  161.6002 C.ar    1  UNL1       -0.0131
     16 C         142.3800  138.5727  162.8574 C.ar    1  UNL1       -0.0036
     17 C         143.2727  139.5088  163.6169 C.ar    1  UNL1        0.0042
     18 C         144.6799  143.7953  165.5671 C.3     1  UNL1        0.1109
     19 N         143.7872  142.8592  164.8076 N.am    1  UNL1       -0.2992
     20 C         144.3828  141.8431  163.8788 C.2     1  UNL1        0.2459
     21 O         145.8710  141.7630  163.7095 O.2     1  UNL1       -0.2701
     22 H         142.8104  142.9118  164.9187 H       1  UNL1        0.1498
     23 C         138.7734  139.3168  166.9325 C.3     1  UNL1        0.0991
     24 C         139.9711  139.9174  167.6067 C.ar    1  UNL1       -0.0062
     25 C         141.2665  140.0442  166.8612 C.ar    1  UNL1       -0.0030
     26 C         142.4643  140.6448  167.5354 C.ar    1  UNL1        0.0036
     27 C         142.3667  141.1186  168.9552 C.ar    1  UNL1        0.0714
     28 C         141.0713  140.9918  169.7009 C.ar    1  UNL1        0.0036
     29 C         139.8735  140.3912  169.0266 C.ar    1  UNL1       -0.0030
     30 C         143.5645  141.7192  169.6295 C.3     1  UNL1        0.4186
     31 F         144.7622  142.3198  170.3037 F       1  UNL1       -0.1659
     32 F         143.6492  142.7596  168.5522 F       1  UNL1       -0.1659
     33 F         143.4797  140.6789  170.7068 F       1  UNL1       -0.1659
@<TRIPOS>BOND
     1    18    19    1
     2    19    20   am
     3    20    21    2
     4    20    12    1
     5    12    13   ar
     6    13    14   ar
     7    14    15   ar
     8    15    11    1
     9    11     7    1
    10     7     8    2
    11     7     9   am
    12     9    10    1
    13     9     1    1
    14     1     2    1
    15     2     3    1
    16     3     4    1
    17     4    23    1
    18    23    24    1
    19    24    25   ar
    20    25    26   ar
    21    26    27   ar
    22    27    30    1
    23    30    31    1
    24    30    32    1
    25    30    33    1
    26    27    28   ar
    27    28    29   ar
    28     4     5    1
    29     5     6    1
    30    15    16   ar
    31    16    17   ar
    32    17    12   ar
    33     6     1    1
    34    29    24   ar
    35    19    22    1
@<TRIPOS>MOLECULE
*****
 33 35 0 0 0
SMALL
GASTEIGER

@<TRIPOS>ATOM
      1 C         141.3898  142.1325  159.2549 C.3     1  UNL1        0.0782
      2 C         142.0807  141.4001  160.3668 C.3     1  UNL1        0.0372
      3 C         141.3970  140.2512  161.0467 C.3     1  UNL1        0.0741
      4 N         140.0222  139.8344  160.6146 N.3     1  UNL1       -0.2689
      5 C         139.3313  140.5667  159.5027 C.3     1  UNL1        0.0741
      6 C         140.0151  141.7158  158.8228 C.3     1  UNL1        0.0372
      7 C         141.6879  144.6908  158.9143 C.2     1  UNL1        0.2301
      8 O         142.3717  145.8398  158.2343 O.2     1  UNL1       -0.2745
      9 N         142.0735  143.2815  158.5750 N.am    1  UNL1       -0.2790
     10 C         143.1428  143.0212  157.5557 C.3     1  UNL1        0.1148
     11 C         140.6186  144.9511  159.9335 C.3     1  UNL1        0.1116
     12 C         141.1282  143.4797  164.1554 C.ar    1  UNL1        0.0533
     13 C         142.2393  144.2307  163.4837 C.ar    1  UNL1        0.0042
     14 C         142.0694  144.7212  162.0764 C.ar    1  UNL1       -0.0036
     15 C         140.7884  144.4606  161.3408 C.ar    1  UNL1       -0.0131
     16 C         139.6773  143.7096  162.0125 C.ar    1  UNL1       -0.0036
     17 C         139.8472  143.2191  163.4199 C.ar    1  UNL1        0.0042
     18 C         142.7836  141.9304  167.4126 C.3     1  UNL1        0.1109
     19 N         142.6138  142.4209  166.0053 N.am    1  UNL1       -0.2992
     20 C         141.2980  142.9892  165.5628 C.2     1  UNL1        0.2459
     21 O         140.1522  143.0670  166.5276 O.2     1  UNL1       -0.2701
     22 H         143.3658  142.3698  165.3720 H       1  UNL1        0.1498
     23 C         139.3385  138.6854  161.2945 C.3     1  UNL1        0.0991
     24 C         139.0179  138.7629  162.7578 C.ar    1  UNL1       -0.0062
     25 C         139.2265  137.5648  163.6358 C.ar    1  UNL1       -0.0030
     26 C         138.9059  137.6424  165.0991 C.ar    1  UNL1        0.0036
     27 C         138.3766  138.9180  165.6844 C.ar    1  UNL1        0.0714
     28 C         138.1679  140.1162  164.8063 C.ar    1  UNL1        0.0036
     29 C         138.4886  140.0387  163.3430 C.ar    1  UNL1       -0.0030
     30 C         138.0560  138.9956  167.1476 C.3     1  UNL1        0.4186
     31 F         137.7353  139.0731  168.6109 F       1  UNL1       -0.1659
     32 F         137.0452  137.8994  166.9842 F       1  UNL1       -0.1659
     33 F         139.0667  140.0918  167.3110 F       1  UNL1       -0.1659
@<TRIPOS>BOND
     1    18    19    1
     2    19    20   am
     3    20    21    2
     4    20    12    1
     5    12    13   ar
     6    13    14   ar
     7    14    15   ar
     8    15    11    1
     9    11     7    1
    10     7     8    2
    11     7     9   am
    12     9    10    1
    13     9     1    1
    14     1     2    1
    15     2     3    1
    16     3     4    1
    17     4    23    1
    18    23    24    1
    19    24    25   ar
    20    25    26   ar
    21    26    27   ar
    22    27    30    1
    23    30    31    1
    24    30    32    1
    25    30    33    1
    26    27    28   ar
    27    28    29   ar
    28     4     5    1
    29     5     6    1
    30    15    16   ar
    31    16    17   ar
    32    17    12   ar
    33     6     1    1
    34    29    24   ar
    35    19    22    1
