@<TRIPOS>MOLECULE
*****
 25 26 0 0 0
SMALL
GASTEIGER

@<TRIPOS>ATOM
      1 C         137.6868  141.0284  163.0275 C.ar    1  UNL1        0.2360
      2 N         137.9608  140.9273  164.4988 N.ar    1  UNL1       -0.2064
      3 C         138.4794  139.6448  165.0787 C.ar    1  UNL1        0.1388
      4 C         138.7239  138.4634  164.1873 C.ar    1  UNL1        0.0387
      5 C         138.4499  138.5646  162.7161 C.ar    1  UNL1        0.0575
      6 N         138.6944  137.3832  161.8246 N.pl3   1  UNL1       -0.3563
      7 C         137.9313  139.8470  162.1362 C.ar    1  UNL1        0.1343
      8 H         139.0348  136.5414  162.2052 H       1  UNL1        0.1424
      9 H         138.5146  137.4495  160.8590 H       1  UNL1        0.1424
     10 C         138.7534  139.5437  166.5500 C.2     1  UNL1        0.2640
     11 O         137.9316  138.6249  167.4046 O.2     1  UNL1       -0.2685
     12 N         139.8494  140.3614  167.1667 N.am    1  UNL1       -0.2956
     13 H         140.3888  140.9644  166.6058 H       1  UNL1        0.1501
     14 C         140.1234  140.2603  168.6379 C.3     1  UNL1        0.1182
     15 C         141.0897  141.2059  169.2875 C.ar    1  UNL1        0.0166
     16 C         142.5663  140.9994  169.1235 C.ar    1  UNL1        0.0005
     17 C         143.5327  141.9450  169.7731 C.ar    1  UNL1        0.0204
     18 C         143.0224  143.0972  170.5867 C.ar    1  UNL1        0.0989
     19 N         141.5457  143.3038  170.7508 N.ar    1  UNL1       -0.2426
     20 C         140.5794  142.3582  170.1012 C.ar    1  UNL1        0.0962
     21 C         137.6573  139.9481  160.6648 C.1     1  UNL1        0.1064
     22 N         137.3832  140.0493  159.1936 N.1     1  UNL1       -0.1906
     23 O         137.1682  142.3109  162.4476 O.3     1  UNL1       -0.4597
     24 C         137.9796  144.4125  163.7417 C.3     1  UNL1        0.0512
     25 C         138.0039  143.5548  162.5114 C.3     1  UNL1        0.2073
@<TRIPOS>BOND
     1    24    25    1
     2    25    23    1
     3    23     1    1
     4     1     2   ar
     5     2     3   ar
     6     3    10    1
     7    10    11    2
     8    10    12   am
     9    12    14    1
    10    14    15    1
    11    15    16   ar
    12    16    17   ar
    13    17    18   ar
    14    18    19   ar
    15    19    20   ar
    16     3     4   ar
    17     4     5   ar
    18     5     6    1
    19     5     7   ar
    20     7    21    1
    21    21    22    3
    22     7     1   ar
    23    20    15   ar
    24    12    13    1
    25     6     8    1
    26     6     9    1
@<TRIPOS>MOLECULE
*****
 25 26 0 0 0
SMALL
GASTEIGER

@<TRIPOS>ATOM
      1 C         140.7041  141.5925  168.1405 C.ar    1  UNL1        0.2360
      2 N         140.3615  141.0489  166.7852 N.ar    1  UNL1       -0.2064
      3 C         139.2779  140.0218  166.6410 C.ar    1  UNL1        0.1388
      4 C         138.5369  139.5382  167.8522 C.ar    1  UNL1        0.0387
      5 C         138.8795  140.0819  169.2076 C.ar    1  UNL1        0.0575
      6 N         138.1385  139.5983  170.4189 N.pl3   1  UNL1       -0.3563
      7 C         139.9631  141.1090  169.3517 C.ar    1  UNL1        0.1343
      8 H         137.4273  138.9242  170.3243 H       1  UNL1        0.1424
      9 H         138.3634  139.9551  171.3085 H       1  UNL1        0.1424
     10 C         138.9353  139.4782  165.2855 C.2     1  UNL1        0.2640
     11 O         138.1928  140.3319  164.3008 O.2     1  UNL1       -0.2685
     12 N         139.3353  138.0808  164.9149 N.am    1  UNL1       -0.2956
     13 H         139.8226  137.5204  165.5612 H       1  UNL1        0.1501
     14 C         138.9927  137.5371  163.5595 C.3     1  UNL1        0.1182
     15 C         139.8911  137.8152  162.3909 C.ar    1  UNL1        0.0166
     16 C         141.3746  137.6402  162.5270 C.ar    1  UNL1        0.0005
     17 C         142.2730  137.9182  161.3584 C.ar    1  UNL1        0.0204
     18 C         141.6879  138.3713  160.0537 C.ar    1  UNL1        0.0989
     19 N         140.2043  138.5463  159.9176 N.ar    1  UNL1       -0.2426
     20 C         139.3059  138.2683  161.0862 C.ar    1  UNL1        0.0962
     21 C         140.3057  141.6526  170.7072 C.1     1  UNL1        0.1064
     22 N         140.6483  142.1962  172.0625 N.1     1  UNL1       -0.1906
     23 O         141.7878  142.6196  168.2847 O.3     1  UNL1       -0.4597
     24 C         143.9271  142.4232  169.7456 C.3     1  UNL1        0.0512
     25 C         143.2147  142.1867  168.4470 C.3     1  UNL1        0.2073
@<TRIPOS>BOND
     1    24    25    1
     2    25    23    1
     3    23     1    1
     4     1     2   ar
     5     2     3   ar
     6     3    10    1
     7    10    11    2
     8    10    12   am
     9    12    14    1
    10    14    15    1
    11    15    16   ar
    12    16    17   ar
    13    17    18   ar
    14    18    19   ar
    15    19    20   ar
    16     3     4   ar
    17     4     5   ar
    18     5     6    1
    19     5     7   ar
    20     7    21    1
    21    21    22    3
    22     7     1   ar
    23    20    15   ar
    24    12    13    1
    25     6     8    1
    26     6     9    1
@<TRIPOS>MOLECULE
*****
 25 26 0 0 0
SMALL
GASTEIGER

@<TRIPOS>ATOM
      1 C         142.2518  142.0680  168.2130 C.ar    1  UNL1        0.2360
      2 N         141.3706  141.1802  167.3854 N.ar    1  UNL1       -0.2064
      3 C         140.1069  140.6223  167.9701 C.ar    1  UNL1        0.1388
      4 C         139.7245  140.9522  169.3825 C.ar    1  UNL1        0.0387
      5 C         140.6058  141.8401  170.2101 C.ar    1  UNL1        0.0575
      6 N         140.2234  142.1701  171.6226 N.pl3   1  UNL1       -0.3563
      7 C         141.8695  142.3980  169.6254 C.ar    1  UNL1        0.1343
      8 H         139.3940  141.8039  172.0064 H       1  UNL1        0.1424
      9 H         140.8018  142.7528  172.1658 H       1  UNL1        0.1424
     10 C         139.2256  139.7344  167.1424 C.2     1  UNL1        0.2640
     11 O         138.1128  138.9665  167.7918 O.2     1  UNL1       -0.2685
     12 N         139.4572  139.6145  165.6652 N.am    1  UNL1       -0.2956
     13 H         140.1877  140.1186  165.2390 H       1  UNL1        0.1501
     14 C         138.5760  138.7267  164.8375 C.3     1  UNL1        0.1182
     15 C         138.7910  138.6271  163.3563 C.ar    1  UNL1        0.0166
     16 C         137.8817  139.3605  162.4155 C.ar    1  UNL1        0.0005
     17 C         138.0967  139.2609  160.9343 C.ar    1  UNL1        0.0204
     18 C         139.2209  138.4279  160.3940 C.ar    1  UNL1        0.0989
     19 N         140.1303  137.6943  161.3348 N.ar    1  UNL1       -0.2426
     20 C         139.9153  137.7940  162.8160 C.ar    1  UNL1        0.0962
     21 C         142.7507  143.2858  170.4531 C.1     1  UNL1        0.1064
     22 N         143.6320  144.1737  171.2808 N.1     1  UNL1       -0.1906
     23 O         143.5155  142.6259  167.6283 O.3     1  UNL1       -0.4597
     24 C         144.5903  143.6995  165.5206 C.3     1  UNL1        0.0512
     25 C         143.7011  142.6625  166.1403 C.3     1  UNL1        0.2073
@<TRIPOS>BOND
     1    24    25    1
     2    25    23    1
     3    23     1    1
     4     1     2   ar
     5     2     3   ar
     6     3    10    1
     7    10    11    2
     8    10    12   am
     9    12    14    1
    10    14    15    1
    11    15    16   ar
    12    16    17   ar
    13    17    18   ar
    14    18    19   ar
    15    19    20   ar
    16     3     4   ar
    17     4     5   ar
    18     5     6    1
    19     5     7   ar
    20     7    21    1
    21    21    22    3
    22     7     1   ar
    23    20    15   ar
    24    12    13    1
    25     6     8    1
    26     6     9    1
@<TRIPOS>MOLECULE
*****
 25 26 0 0 0
SMALL
GASTEIGER

@<TRIPOS>ATOM
      1 C         138.8503  140.0457  169.4116 C.ar    1  UNL1        0.2360
      2 N         138.4760  139.4482  168.0877 N.ar    1  UNL1       -0.2064
      3 C         139.1942  139.8754  166.8420 C.ar    1  UNL1        0.1388
      4 C         140.2867  140.9002  166.9202 C.ar    1  UNL1        0.0387
      5 C         140.6611  141.4977  168.2441 C.ar    1  UNL1        0.0575
      6 N         141.7537  142.5225  168.3224 N.pl3   1  UNL1       -0.3563
      7 C         139.9429  141.0705  169.4898 C.ar    1  UNL1        0.1343
      8 H         142.2250  142.8029  167.5048 H       1  UNL1        0.1424
      9 H         141.9994  142.9147  169.1913 H       1  UNL1        0.1424
     10 C         138.8197  139.2778  165.5181 C.2     1  UNL1        0.2640
     11 O         137.9095  140.0245  164.5887 O.2     1  UNL1       -0.2685
     12 N         139.3556  137.9335  165.1236 N.am    1  UNL1       -0.2956
     13 H         139.9531  137.4434  165.7336 H       1  UNL1        0.1501
     14 C         138.9813  137.3359  163.7997 C.3     1  UNL1        0.1182
     15 C         139.7340  137.7242  162.5617 C.ar    1  UNL1        0.0166
     16 C         138.9900  138.2053  161.3514 C.ar    1  UNL1        0.0005
     17 C         139.7427  138.5936  160.1135 C.ar    1  UNL1        0.0204
     18 C         141.2396  138.5009  160.0858 C.ar    1  UNL1        0.0989
     19 N         141.9837  138.0198  161.2962 N.ar    1  UNL1       -0.2426
     20 C         141.2310  137.6315  162.5341 C.ar    1  UNL1        0.0962
     21 C         140.3173  141.6681  170.8137 C.1     1  UNL1        0.1064
     22 N         140.6916  142.2657  172.1376 N.1     1  UNL1       -0.1906
     23 O         138.1321  139.6185  170.6572 O.3     1  UNL1       -0.4597
     24 C         135.7946  138.9660  171.5846 C.3     1  UNL1        0.0512
     25 C         136.8755  138.8056  170.5571 C.3     1  UNL1        0.2073
@<TRIPOS>BOND
     1    24    25    1
     2    25    23    1
     3    23     1    1
     4     1     2   ar
     5     2     3   ar
     6     3    10    1
     7    10    11    2
     8    10    12   am
     9    12    14    1
    10    14    15    1
    11    15    16   ar
    12    16    17   ar
    13    17    18   ar
    14    18    19   ar
    15    19    20   ar
    16     3     4   ar
    17     4     5   ar
    18     5     6    1
    19     5     7   ar
    20     7    21    1
    21    21    22    3
    22     7     1   ar
    23    20    15   ar
    24    12    13    1
    25     6     8    1
    26     6     9    1
@<TRIPOS>MOLECULE
*****
 25 26 0 0 0
SMALL
GASTEIGER

@<TRIPOS>ATOM
      1 C         139.3539  140.0570  167.7866 C.ar    1  UNL1        0.2360
      2 N         140.2861  140.7601  166.8449 N.ar    1  UNL1       -0.2064
      3 C         141.0602  141.9575  167.3106 C.ar    1  UNL1        0.1388
      4 C         140.9022  142.4518  168.7180 C.ar    1  UNL1        0.0387
      5 C         139.9700  141.7487  169.6596 C.ar    1  UNL1        0.0575
      6 N         139.8120  142.2431  171.0670 N.pl3   1  UNL1       -0.3563
      7 C         139.1959  140.5513  169.1939 C.ar    1  UNL1        0.1343
      8 H         140.3200  143.0290  171.3727 H       1  UNL1        0.1424
      9 H         139.2002  141.7816  171.6850 H       1  UNL1        0.1424
     10 C         141.9924  142.6606  166.3689 C.2     1  UNL1        0.2640
     11 O         141.4416  143.4504  165.2187 O.2     1  UNL1       -0.2685
     12 N         143.4753  142.5739  166.5774 N.am    1  UNL1       -0.2956
     13 H         143.8367  142.0556  167.3324 H       1  UNL1        0.1501
     14 C         144.4074  143.2770  165.6358 C.3     1  UNL1        0.1182
     15 C         144.5326  142.8096  164.2160 C.ar    1  UNL1        0.0166
     16 C         144.1766  143.7324  163.0884 C.ar    1  UNL1        0.0005
     17 C         144.3017  143.2650  161.6686 C.ar    1  UNL1        0.0204
     18 C         144.7830  141.8747  161.3764 C.ar    1  UNL1        0.0989
     19 N         145.1391  140.9518  162.5040 N.ar    1  UNL1       -0.2426
     20 C         145.0139  141.4192  163.9238 C.ar    1  UNL1        0.0962
     21 C         138.2637  139.8482  170.1356 C.1     1  UNL1        0.1064
     22 N         137.3316  139.1451  171.0772 N.1     1  UNL1       -0.1906
     23 O         138.5798  138.8595  167.3209 O.3     1  UNL1       -0.4597
     24 C         139.1065  137.7285  165.0420 C.3     1  UNL1        0.0512
     25 C         138.2844  138.6786  165.8614 C.3     1  UNL1        0.2073
@<TRIPOS>BOND
     1    24    25    1
     2    25    23    1
     3    23     1    1
     4     1     2   ar
     5     2     3   ar
     6     3    10    1
     7    10    11    2
     8    10    12   am
     9    12    14    1
    10    14    15    1
    11    15    16   ar
    12    16    17   ar
    13    17    18   ar
    14    18    19   ar
    15    19    20   ar
    16     3     4   ar
    17     4     5   ar
    18     5     6    1
    19     5     7   ar
    20     7    21    1
    21    21    22    3
    22     7     1   ar
    23    20    15   ar
    24    12    13    1
    25     6     8    1
    26     6     9    1
@<TRIPOS>MOLECULE
*****
 25 26 0 0 0
SMALL
GASTEIGER

@<TRIPOS>ATOM
      1 C         140.8450  142.1775  167.6347 C.ar    1  UNL1        0.2360
      2 N         141.6411  141.4189  166.6146 N.ar    1  UNL1       -0.2064
      3 C         142.4737  140.2442  167.0352 C.ar    1  UNL1        0.1388
      4 C         142.5101  139.8281  168.4758 C.ar    1  UNL1        0.0387
      5 C         141.7139  140.5867  169.4959 C.ar    1  UNL1        0.0575
      6 N         141.7503  140.1707  170.9366 N.pl3   1  UNL1       -0.3563
      7 C         140.8814  141.7614  169.0753 C.ar    1  UNL1        0.1343
      8 H         142.2968  139.3997  171.2127 H       1  UNL1        0.1424
      9 H         141.2278  140.6686  171.6061 H       1  UNL1        0.1424
     10 C         143.2699  139.4855  166.0151 C.2     1  UNL1        0.2640
     11 O         143.4455  138.0022  166.1524 O.2     1  UNL1       -0.2685
     12 N         143.8905  140.2103  164.8577 N.am    1  UNL1       -0.2956
     13 H         143.7753  141.1838  164.7676 H       1  UNL1        0.1501
     14 C         144.6867  139.4517  163.8375 C.3     1  UNL1        0.1182
     15 C         144.1942  139.3525  162.4242 C.ar    1  UNL1        0.0166
     16 C         143.6743  138.0463  161.9011 C.ar    1  UNL1        0.0005
     17 C         143.1818  137.9471  160.4877 C.ar    1  UNL1        0.0204
     18 C         143.2093  139.1540  159.5974 C.ar    1  UNL1        0.0989
     19 N         143.7292  140.4602  160.1205 N.ar    1  UNL1       -0.2426
     20 C         144.2217  140.5594  161.5339 C.ar    1  UNL1        0.0962
     21 C         140.0852  142.5201  170.0954 C.1     1  UNL1        0.1064
     22 N         139.2891  143.2787  171.1155 N.1     1  UNL1       -0.1906
     23 O         140.0124  143.3522  167.2141 O.3     1  UNL1       -0.4597
     24 C         138.8171  144.7054  165.3459 C.3     1  UNL1        0.0512
     25 C         139.7261  143.5865  165.7604 C.3     1  UNL1        0.2073
@<TRIPOS>BOND
     1    24    25    1
     2    25    23    1
     3    23     1    1
     4     1     2   ar
     5     2     3   ar
     6     3    10    1
     7    10    11    2
     8    10    12   am
     9    12    14    1
    10    14    15    1
    11    15    16   ar
    12    16    17   ar
    13    17    18   ar
    14    18    19   ar
    15    19    20   ar
    16     3     4   ar
    17     4     5   ar
    18     5     6    1
    19     5     7   ar
    20     7    21    1
    21    21    22    3
    22     7     1   ar
    23    20    15   ar
    24    12    13    1
    25     6     8    1
    26     6     9    1
@<TRIPOS>MOLECULE
*****
 25 26 0 0 0
SMALL
GASTEIGER

@<TRIPOS>ATOM
      1 C         138.4791  139.5492  162.2276 C.ar    1  UNL1        0.2360
      2 N         138.1542  139.7003  163.6842 N.ar    1  UNL1       -0.2064
      3 C         138.9659  138.9709  164.7133 C.ar    1  UNL1        0.1388
      4 C         140.1024  138.0903  164.2859 C.ar    1  UNL1        0.0387
      5 C         140.4273  137.9392  162.8294 C.ar    1  UNL1        0.0575
      6 N         141.5639  137.0585  162.4019 N.pl3   1  UNL1       -0.3563
      7 C         139.6156  138.6686  161.8002 C.ar    1  UNL1        0.1343
      8 H         142.0967  136.5798  163.0773 H       1  UNL1        0.1424
      9 H         141.7772  136.9593  161.4459 H       1  UNL1        0.1424
     10 C         138.6409  139.1221  166.1699 C.2     1  UNL1        0.2640
     11 O         137.3929  138.5050  166.7279 O.2     1  UNL1       -0.2685
     12 N         139.5641  139.8905  167.0684 N.am    1  UNL1       -0.2956
     13 H         140.3833  140.2955  166.7022 H       1  UNL1        0.1501
     14 C         139.2392  140.0417  168.5250 C.3     1  UNL1        0.1182
     15 C         140.1359  140.8522  169.4132 C.ar    1  UNL1        0.0166
     16 C         140.5693  142.2245  168.9901 C.ar    1  UNL1        0.0005
     17 C         141.4661  143.0350  169.8783 C.ar    1  UNL1        0.0204
     18 C         141.9294  142.4732  171.1897 C.ar    1  UNL1        0.0989
     19 N         141.4960  141.1009  171.6129 N.ar    1  UNL1       -0.2426
     20 C         140.5993  140.2904  170.7246 C.ar    1  UNL1        0.0962
     21 C         139.9406  138.5174  160.3436 C.1     1  UNL1        0.1064
     22 N         140.2655  138.3662  158.8871 N.1     1  UNL1       -0.1906
     23 O         137.6674  140.2786  161.1985 O.3     1  UNL1       -0.4597
     24 C         137.9706  142.7843  161.8147 C.3     1  UNL1        0.0512
     25 C         138.0382  141.6776  160.8044 C.3     1  UNL1        0.2073
@<TRIPOS>BOND
     1    24    25    1
     2    25    23    1
     3    23     1    1
     4     1     2   ar
     5     2     3   ar
     6     3    10    1
     7    10    11    2
     8    10    12   am
     9    12    14    1
    10    14    15    1
    11    15    16   ar
    12    16    17   ar
    13    17    18   ar
    14    18    19   ar
    15    19    20   ar
    16     3     4   ar
    17     4     5   ar
    18     5     6    1
    19     5     7   ar
    20     7    21    1
    21    21    22    3
    22     7     1   ar
    23    20    15   ar
    24    12    13    1
    25     6     8    1
    26     6     9    1
@<TRIPOS>MOLECULE
*****
 25 26 0 0 0
SMALL
GASTEIGER

@<TRIPOS>ATOM
      1 C         140.8546  141.5889  168.1125 C.ar    1  UNL1        0.2360
      2 N         140.5728  141.0152  166.7555 N.ar    1  UNL1       -0.2064
      3 C         139.4850  139.9969  166.5829 C.ar    1  UNL1        0.1388
      4 C         138.6792  139.5522  167.7673 C.ar    1  UNL1        0.0387
      5 C         138.9610  140.1259  169.1242 C.ar    1  UNL1        0.0575
      6 N         138.1551  139.6812  170.3087 N.pl3   1  UNL1       -0.3563
      7 C         140.0487  141.1442  169.2968 C.ar    1  UNL1        0.1343
      8 H         137.4412  139.0128  170.1954 H       1  UNL1        0.1424
      9 H         138.3401  140.0577  171.1993 H       1  UNL1        0.1424
     10 C         139.2032  139.4232  165.2258 C.2     1  UNL1        0.2640
     11 O         139.8881  138.1628  164.7874 O.2     1  UNL1       -0.2685
     12 N         138.2365  140.1100  164.3073 N.am    1  UNL1       -0.2956
     13 H         137.7870  140.9373  164.5951 H       1  UNL1        0.1501
     14 C         137.9547  139.5364  162.9503 C.3     1  UNL1        0.1182
     15 C         138.1257  140.3865  161.7264 C.ar    1  UNL1        0.0166
     16 C         138.4217  141.8504  161.8654 C.ar    1  UNL1        0.0005
     17 C         138.5927  142.7006  160.6415 C.ar    1  UNL1        0.0204
     18 C         138.4677  142.0869  159.2785 C.ar    1  UNL1        0.0989
     19 N         138.1716  140.6229  159.1394 N.ar    1  UNL1       -0.2426
     20 C         138.0006  139.7727  160.3634 C.ar    1  UNL1        0.0962
     21 C         140.3306  141.7179  170.6539 C.1     1  UNL1        0.1064
     22 N         140.6123  142.2915  172.0109 N.1     1  UNL1       -0.1906
     23 O         141.9423  142.6073  168.2851 O.3     1  UNL1       -0.4597
     24 C         144.0222  142.5299  169.8401 C.3     1  UNL1        0.0512
     25 C         143.3503  142.1632  168.5501 C.3     1  UNL1        0.2073
@<TRIPOS>BOND
     1    24    25    1
     2    25    23    1
     3    23     1    1
     4     1     2   ar
     5     2     3   ar
     6     3    10    1
     7    10    11    2
     8    10    12   am
     9    12    14    1
    10    14    15    1
    11    15    16   ar
    12    16    17   ar
    13    17    18   ar
    14    18    19   ar
    15    19    20   ar
    16     3     4   ar
    17     4     5   ar
    18     5     6    1
    19     5     7   ar
    20     7    21    1
    21    21    22    3
    22     7     1   ar
    23    20    15   ar
    24    12    13    1
    25     6     8    1
    26     6     9    1
@<TRIPOS>MOLECULE
*****
 25 26 0 0 0
SMALL
GASTEIGER

@<TRIPOS>ATOM
      1 C         140.0174  140.1357  167.1510 C.ar    1  UNL1        0.2360
      2 N         141.0924  140.4364  166.1491 N.ar    1  UNL1       -0.2064
      3 C         142.3153  141.1978  166.5670 C.ar    1  UNL1        0.1388
      4 C         142.4633  141.6584  167.9868 C.ar    1  UNL1        0.0387
      5 C         141.3883  141.3576  168.9887 C.ar    1  UNL1        0.0575
      6 N         141.5363  141.8182  170.4086 N.pl3   1  UNL1       -0.3563
      7 C         140.1654  140.5963  168.5708 C.ar    1  UNL1        0.1343
      8 H         142.3390  142.3179  170.6829 H       1  UNL1        0.1424
      9 H         140.8307  141.6208  171.0662 H       1  UNL1        0.1424
     10 C         143.3904  141.4986  165.5650 C.2     1  UNL1        0.2640
     11 O         143.8748  142.9066  165.3846 O.2     1  UNL1       -0.2685
     12 N         143.9809  140.3912  164.7434 N.am    1  UNL1       -0.2956
     13 H         143.6630  139.4670  164.8618 H       1  UNL1        0.1501
     14 C         145.0559  140.6919  163.7415 C.3     1  UNL1        0.1182
     15 C         144.6980  140.9174  162.3024 C.ar    1  UNL1        0.0166
     16 C         144.1284  139.7950  161.4864 C.ar    1  UNL1        0.0005
     17 C         143.7705  140.0205  160.0473 C.ar    1  UNL1        0.0204
     18 C         143.9822  141.3684  159.4241 C.ar    1  UNL1        0.0989
     19 N         144.5517  142.4908  160.2401 N.ar    1  UNL1       -0.2426
     20 C         144.9096  142.2654  161.6792 C.ar    1  UNL1        0.0962
     21 C         139.0903  140.2955  169.5728 C.1     1  UNL1        0.1064
     22 N         138.0154  139.9947  170.5748 N.1     1  UNL1       -0.1906
     23 O         138.7944  139.3743  166.7331 O.3     1  UNL1       -0.4597
     24 C         139.0083  137.5192  164.9268 C.3     1  UNL1        0.0512
     25 C         138.6420  138.9221  165.3111 C.3     1  UNL1        0.2073
@<TRIPOS>BOND
     1    24    25    1
     2    25    23    1
     3    23     1    1
     4     1     2   ar
     5     2     3   ar
     6     3    10    1
     7    10    11    2
     8    10    12   am
     9    12    14    1
    10    14    15    1
    11    15    16   ar
    12    16    17   ar
    13    17    18   ar
    14    18    19   ar
    15    19    20   ar
    16     3     4   ar
    17     4     5   ar
    18     5     6    1
    19     5     7   ar
    20     7    21    1
    21    21    22    3
    22     7     1   ar
    23    20    15   ar
    24    12    13    1
    25     6     8    1
    26     6     9    1
