@<TRIPOS>MOLECULE
*****
 26 28 0 0 0
SMALL
GASTEIGER

@<TRIPOS>ATOM
      1 C         138.8546  144.7202  165.1729 C.3     1  UNL1        0.0327
      2 C         139.4463  143.3589  165.3892 C.ar    1  UNL1       -0.0009
      3 C         140.3452  142.9580  166.5211 C.ar    1  UNL1        0.0727
      4 N         140.6974  141.5109  166.3430 N.ar    1  UNL1       -0.3135
      5 C         140.0162  141.0174  165.1010 C.ar    1  UNL1        0.1444
      6 N         140.0001  139.6756  164.4308 N.ar    1  UNL1       -0.2237
      7 C         139.2108  139.4760  163.1710 C.ar    1  UNL1        0.1366
      8 C         138.4375  140.6182  162.5815 C.ar    1  UNL1        0.0352
      9 C         138.4536  141.9600  163.2518 C.ar    1  UNL1        0.0619
     10 CL        137.6804  143.1022  162.6623 Cl      1  UNL1       -0.0821
     11 C         139.2430  142.1596  164.5116 C.ar    1  UNL1        0.0422
     12 C         139.1947  138.1342  162.5006 C.2     1  UNL1        0.2606
     13 N         137.9410  137.6400  161.8417 N.am    1  UNL1       -0.3241
     14 O         140.4322  137.2866  162.4892 O.2     1  UNL1       -0.2687
     15 H         137.1288  138.1963  161.8493 H       1  UNL1        0.1453
     16 H         137.9304  136.7594  161.4018 H       1  UNL1        0.1453
     17 C         141.5765  140.6995  167.2480 C.3     1  UNL1        0.0896
     18 C         142.7363  139.9364  166.6803 C.3     1  UNL1        0.0246
     19 C         141.2958  140.6514  168.7208 C.3     1  UNL1        0.0562
     20 C         142.3365  141.1116  169.6981 C.3     1  UNL1        0.0217
     21 C         142.0557  141.0634  171.1707 C.3     1  UNL1        0.0688
     22 N         140.7343  140.5552  171.6661 N.3     1  UNL1       -0.2952
     23 C         139.6935  140.0950  170.6888 C.3     1  UNL1        0.1043
     24 C         139.9743  140.1432  169.2161 C.3     1  UNL1        0.1784
     25 F         138.9336  139.6830  168.2387 F       1  UNL1       -0.2357
     26 H         140.3143  141.3086  172.2105 H       1  UNL1        0.1233
@<TRIPOS>BOND
     1     1     2    1
     2     2     3   ar
     3     3     4   ar
     4     4    17    1
     5    17    18    1
     6    17    19    1
     7    19    20    1
     8    20    21    1
     9    21    22    1
    10    22    23    1
    11    23    24    1
    12    24    25    1
    13     4     5   ar
    14     5     6   ar
    15     6     7   ar
    16     7    12    1
    17    12    13   am
    18    12    14    2
    19     7     8   ar
    20     8     9   ar
    21     9    10    1
    22     9    11   ar
    23    11     2   ar
    24    24    19    1
    25    11     5   ar
    26    22    26    1
    27    13    15    1
    28    13    16    1
@<TRIPOS>MOLECULE
*****
 26 28 0 0 0
SMALL
GASTEIGER

@<TRIPOS>ATOM
      1 C         138.8450  144.8043  164.9636 C.3     1  UNL1        0.0327
      2 C         139.9761  143.8584  165.2388 C.ar    1  UNL1       -0.0009
      3 C         140.0986  142.9528  166.4283 C.ar    1  UNL1        0.0727
      4 N         141.3815  142.1867  166.2974 N.ar    1  UNL1       -0.3135
      5 C         142.0520  142.6189  165.0271 C.ar    1  UNL1        0.1444
      6 N         143.3412  142.2051  164.3817 N.ar    1  UNL1       -0.2237
      7 C         143.7618  142.8245  163.0819 C.ar    1  UNL1        0.1366
      8 C         142.8932  143.8576  162.4276 C.ar    1  UNL1        0.0352
      9 C         141.6040  144.2714  163.0731 C.ar    1  UNL1        0.0619
     10 CL        140.7354  145.3046  162.4188 Cl      1  UNL1       -0.0821
     11 C         141.1834  143.6520  164.3728 C.ar    1  UNL1        0.0422
     12 C         145.0511  142.4107  162.4364 C.2     1  UNL1        0.2606
     13 N         145.3087  142.7415  160.9961 N.am    1  UNL1       -0.3241
     14 O         146.0827  141.6662  163.2310 O.2     1  UNL1       -0.2687
     15 H         144.6317  143.2301  160.4746 H       1  UNL1        0.1453
     16 H         146.1549  142.4699  160.5724 H       1  UNL1        0.1453
     17 C         141.9026  141.1674  167.2667 C.3     1  UNL1        0.0896
     18 C         142.3503  139.8235  166.7735 C.3     1  UNL1        0.0246
     19 C         141.9760  141.4921  168.7294 C.3     1  UNL1        0.0562
     20 C         142.9199  142.5514  169.2161 C.3     1  UNL1        0.0217
     21 C         142.9932  142.8760  170.6787 C.3     1  UNL1        0.0688
     22 N         142.1226  142.1414  171.6546 N.3     1  UNL1       -0.2952
     23 C         141.1786  141.0821  171.1679 C.3     1  UNL1        0.1043
     24 C         141.1053  140.7575  169.7053 C.3     1  UNL1        0.1784
     25 F         140.1614  139.6982  169.2185 F       1  UNL1       -0.2357
     26 H         141.5568  142.8437  172.1310 H       1  UNL1        0.1233
@<TRIPOS>BOND
     1     1     2    1
     2     2     3   ar
     3     3     4   ar
     4     4    17    1
     5    17    18    1
     6    17    19    1
     7    19    20    1
     8    20    21    1
     9    21    22    1
    10    22    23    1
    11    23    24    1
    12    24    25    1
    13     4     5   ar
    14     5     6   ar
    15     6     7   ar
    16     7    12    1
    17    12    13   am
    18    12    14    2
    19     7     8   ar
    20     8     9   ar
    21     9    10    1
    22     9    11   ar
    23    11     2   ar
    24    24    19    1
    25    11     5   ar
    26    22    26    1
    27    13    15    1
    28    13    16    1
@<TRIPOS>MOLECULE
*****
 26 28 0 0 0
SMALL
GASTEIGER

@<TRIPOS>ATOM
      1 C         144.7212  143.4858  165.1596 C.3     1  UNL1        0.0327
      2 C         143.3546  142.9354  165.4413 C.ar    1  UNL1       -0.0009
      3 C         142.9815  142.0473  166.5911 C.ar    1  UNL1        0.0727
      4 N         141.5174  141.7396  166.4830 N.ar    1  UNL1       -0.3135
      5 C         140.9856  142.4375  165.2665 C.ar    1  UNL1        0.1444
      6 N         139.6141  142.4955  164.6618 N.ar    1  UNL1       -0.2237
      7 C         139.3781  143.2927  163.4133 C.ar    1  UNL1        0.1366
      8 C         140.5136  144.0318  162.7694 C.ar    1  UNL1        0.0352
      9 C         141.8850  143.9737  163.3741 C.ar    1  UNL1        0.0619
     10 CL        143.0205  144.7128  162.7303 Cl      1  UNL1       -0.0821
     11 C         142.1210  143.1766  164.6227 C.ar    1  UNL1        0.0422
     12 C         138.0066  143.3507  162.8085 C.2     1  UNL1        0.2606
     13 N         137.3725  144.6777  162.5137 N.am    1  UNL1       -0.3241
     14 O         137.2693  142.0818  162.4986 O.2     1  UNL1       -0.2687
     15 H         137.8565  145.5106  162.7171 H       1  UNL1        0.1453
     16 H         136.4724  144.7159  162.1168 H       1  UNL1        0.1453
     17 C         140.7243  140.8841  167.4260 C.3     1  UNL1        0.0896
     18 C         140.0217  139.6602  166.9178 C.3     1  UNL1        0.0246
     19 C         140.6339  141.2525  168.8773 C.3     1  UNL1        0.0562
     20 C         140.8881  140.2162  169.9315 C.3     1  UNL1        0.0217
     21 C         140.7976  140.5847  171.3827 C.3     1  UNL1        0.0688
     22 N         140.4529  141.9895  171.7797 N.3     1  UNL1       -0.2952
     23 C         140.1986  143.0259  170.7255 C.3     1  UNL1        0.1043
     24 C         140.2891  142.6573  169.2743 C.3     1  UNL1        0.1784
     25 F         140.0348  143.6937  168.2201 F       1  UNL1       -0.2357
     26 H         141.2262  142.3326  172.3495 H       1  UNL1        0.1233
@<TRIPOS>BOND
     1     1     2    1
     2     2     3   ar
     3     3     4   ar
     4     4    17    1
     5    17    18    1
     6    17    19    1
     7    19    20    1
     8    20    21    1
     9    21    22    1
    10    22    23    1
    11    23    24    1
    12    24    25    1
    13     4     5   ar
    14     5     6   ar
    15     6     7   ar
    16     7    12    1
    17    12    13   am
    18    12    14    2
    19     7     8   ar
    20     8     9   ar
    21     9    10    1
    22     9    11   ar
    23    11     2   ar
    24    24    19    1
    25    11     5   ar
    26    22    26    1
    27    13    15    1
    28    13    16    1
@<TRIPOS>MOLECULE
*****
 26 28 0 0 0
SMALL
GASTEIGER

@<TRIPOS>ATOM
      1 C         138.5030  138.9993  166.0128 C.3     1  UNL1        0.0327
      2 C         139.8263  139.7055  165.9977 C.ar    1  UNL1       -0.0009
      3 C         140.7239  139.8709  164.8074 C.ar    1  UNL1        0.0727
      4 N         141.9366  140.6379  165.2444 N.ar    1  UNL1       -0.3135
      5 C         141.7885  140.9466  166.7048 C.ar    1  UNL1        0.1444
      6 N         142.6727  141.6779  167.6708 N.ar    1  UNL1       -0.2237
      7 C         142.2527  141.8330  169.1024 C.ar    1  UNL1        0.1366
      8 C         140.9484  141.2568  169.5680 C.ar    1  UNL1        0.0352
      9 C         140.0642  140.5254  168.6020 C.ar    1  UNL1        0.0619
     10 CL        138.7599  139.9492  169.0676 Cl      1  UNL1       -0.0821
     11 C         140.4842  140.3703  167.1704 C.ar    1  UNL1        0.0422
     12 C         143.1370  142.5644  170.0684 C.2     1  UNL1        0.2606
     13 N         142.6058  142.9718  171.4108 N.am    1  UNL1       -0.3241
     14 O         144.5524  142.8884  169.6922 O.2     1  UNL1       -0.2687
     15 H         141.6768  142.7591  171.6577 H       1  UNL1        0.1453
     16 H         143.1861  143.4518  172.0448 H       1  UNL1        0.1453
     17 C         143.0942  141.0278  164.3739 C.3     1  UNL1        0.0896
     18 C         144.2447  140.0834  164.1883 C.3     1  UNL1        0.0246
     19 C         143.1014  142.3622  163.6887 C.3     1  UNL1        0.0562
     20 C         142.3878  142.5378  162.3811 C.3     1  UNL1        0.0217
     21 C         142.3951  143.8722  161.6961 C.3     1  UNL1        0.0688
     22 N         143.1159  145.0310  162.3187 N.3     1  UNL1       -0.2952
     23 C         143.8295  144.8554  163.6263 C.3     1  UNL1        0.1043
     24 C         143.8222  143.5210  164.3113 C.3     1  UNL1        0.1784
     25 F         144.5358  143.3454  165.6190 F       1  UNL1       -0.2357
     26 H         142.4243  145.7679  162.4572 H       1  UNL1        0.1233
@<TRIPOS>BOND
     1     1     2    1
     2     2     3   ar
     3     3     4   ar
     4     4    17    1
     5    17    18    1
     6    17    19    1
     7    19    20    1
     8    20    21    1
     9    21    22    1
    10    22    23    1
    11    23    24    1
    12    24    25    1
    13     4     5   ar
    14     5     6   ar
    15     6     7   ar
    16     7    12    1
    17    12    13   am
    18    12    14    2
    19     7     8   ar
    20     8     9   ar
    21     9    10    1
    22     9    11   ar
    23    11     2   ar
    24    24    19    1
    25    11     5   ar
    26    22    26    1
    27    13    15    1
    28    13    16    1
@<TRIPOS>MOLECULE
*****
 26 28 0 0 0
SMALL
GASTEIGER

@<TRIPOS>ATOM
      1 C         143.4454  138.5715  166.2168 C.3     1  UNL1        0.0327
      2 C         142.7468  139.8983  166.1766 C.ar    1  UNL1       -0.0009
      3 C         142.5644  140.7623  164.9641 C.ar    1  UNL1        0.0727
      4 N         141.8128  141.9919  165.3801 N.ar    1  UNL1       -0.3135
      5 C         141.5305  141.8878  166.8496 C.ar    1  UNL1        0.1444
      6 N         140.8225  142.8041  167.8030 N.ar    1  UNL1       -0.2237
      7 C         140.6917  142.4264  169.2488 C.ar    1  UNL1        0.1366
      8 C         141.2690  141.1324  169.7411 C.ar    1  UNL1        0.0352
      9 C         141.9770  140.2161  168.7876 C.ar    1  UNL1        0.0619
     10 CL        142.5543  138.9221  169.2799 Cl      1  UNL1       -0.0821
     11 C         142.1078  140.5938  167.3419 C.ar    1  UNL1        0.0422
     12 C         139.9837  143.3427  170.2023 C.2     1  UNL1        0.2606
     13 N         140.3853  144.7850  170.2944 N.am    1  UNL1       -0.3241
     14 O         138.8740  142.8167  171.0636 O.2     1  UNL1       -0.2687
     15 H         141.1136  145.1302  169.7290 H       1  UNL1        0.1453
     16 H         139.9206  145.3864  170.9202 H       1  UNL1        0.1453
     17 C         141.4134  143.1265  164.4838 C.3     1  UNL1        0.0896
     18 C         142.3459  144.2831  164.2771 C.3     1  UNL1        0.0246
     19 C         140.0814  143.1045  163.7942 C.3     1  UNL1        0.0562
     20 C         139.8238  142.1206  162.6917 C.3     1  UNL1        0.0217
     21 C         138.4919  142.0987  162.0022 C.3     1  UNL1        0.0688
     22 N         137.4176  143.0606  162.4152 N.3     1  UNL1       -0.2952
     23 C         137.6752  144.0445  163.5177 C.3     1  UNL1        0.1043
     24 C         139.0071  144.0665  164.2072 C.3     1  UNL1        0.1784
     25 F         139.2648  145.0504  165.3098 F       1  UNL1       -0.2357
     26 H         136.6151  142.5003  162.7021 H       1  UNL1        0.1233
@<TRIPOS>BOND
     1     1     2    1
     2     2     3   ar
     3     3     4   ar
     4     4    17    1
     5    17    18    1
     6    17    19    1
     7    19    20    1
     8    20    21    1
     9    21    22    1
    10    22    23    1
    11    23    24    1
    12    24    25    1
    13     4     5   ar
    14     5     6   ar
    15     6     7   ar
    16     7    12    1
    17    12    13   am
    18    12    14    2
    19     7     8   ar
    20     8     9   ar
    21     9    10    1
    22     9    11   ar
    23    11     2   ar
    24    24    19    1
    25    11     5   ar
    26    22    26    1
    27    13    15    1
    28    13    16    1
@<TRIPOS>MOLECULE
*****
 26 28 0 0 0
SMALL
GASTEIGER

@<TRIPOS>ATOM
      1 C         138.8675  138.1054  164.8880 C.3     1  UNL1        0.0327
      2 C         139.5276  139.4051  165.2419 C.ar    1  UNL1       -0.0009
      3 C         140.4422  139.6408  166.4071 C.ar    1  UNL1        0.0727
      4 N         140.8688  141.0786  166.3780 N.ar    1  UNL1       -0.3135
      5 C         140.2177  141.7314  165.1948 C.ar    1  UNL1        0.1444
      6 N         140.2726  143.1341  164.6661 N.ar    1  UNL1       -0.2237
      7 C         139.4986  143.5024  163.4352 C.ar    1  UNL1        0.1366
      8 C         138.6697  142.4681  162.7330 C.ar    1  UNL1        0.0352
      9 C         138.6148  141.0654  163.2617 C.ar    1  UNL1        0.0619
     10 CL        137.7858  140.0311  162.5595 Cl      1  UNL1       -0.0821
     11 C         139.3888  140.6971  164.4926 C.ar    1  UNL1        0.0422
     12 C         139.5535  144.9051  162.9064 C.2     1  UNL1        0.2606
     13 N         140.7281  145.7816  163.2259 N.am    1  UNL1       -0.3241
     14 O         138.4338  145.4312  162.0583 O.2     1  UNL1       -0.2687
     15 H         141.4630  145.4363  163.7826 H       1  UNL1        0.1453
     16 H         140.7641  146.7022  162.8789 H       1  UNL1        0.1453
     17 C         141.7854  141.7463  167.3598 C.3     1  UNL1        0.0896
     18 C         143.1128  142.2769  166.9055 C.3     1  UNL1        0.0246
     19 C         141.3747  141.8835  168.7960 C.3     1  UNL1        0.0562
     20 C         140.3527  142.9087  169.1891 C.3     1  UNL1        0.0217
     21 C         139.9420  143.0457  170.6253 C.3     1  UNL1        0.0688
     22 N         140.5532  142.1577  171.6682 N.3     1  UNL1       -0.2952
     23 C         141.5752  141.1326  171.2751 C.3     1  UNL1        0.1043
     24 C         141.9859  140.9955  169.8390 C.3     1  UNL1        0.1784
     25 F         143.0079  139.9703  169.4457 F       1  UNL1       -0.2357
     26 H         139.7857  141.6533  172.1120 H       1  UNL1        0.1233
@<TRIPOS>BOND
     1     1     2    1
     2     2     3   ar
     3     3     4   ar
     4     4    17    1
     5    17    18    1
     6    17    19    1
     7    19    20    1
     8    20    21    1
     9    21    22    1
    10    22    23    1
    11    23    24    1
    12    24    25    1
    13     4     5   ar
    14     5     6   ar
    15     6     7   ar
    16     7    12    1
    17    12    13   am
    18    12    14    2
    19     7     8   ar
    20     8     9   ar
    21     9    10    1
    22     9    11   ar
    23    11     2   ar
    24    24    19    1
    25    11     5   ar
    26    22    26    1
    27    13    15    1
    28    13    16    1
@<TRIPOS>MOLECULE
*****
 26 28 0 0 0
SMALL
GASTEIGER

@<TRIPOS>ATOM
      1 C         144.8511  143.2415  165.7540 C.3     1  UNL1        0.0327
      2 C         143.4480  142.7883  165.4781 C.ar    1  UNL1       -0.0009
      3 C         142.8193  141.5179  165.9689 C.ar    1  UNL1        0.0727
      4 N         141.4101  141.4705  165.4571 N.ar    1  UNL1       -0.3135
      5 C         141.1679  142.7115  164.6501 C.ar    1  UNL1        0.1444
      6 N         139.9632  143.2051  163.9051 N.ar    1  UNL1       -0.2237
      7 C         140.0181  144.5131  163.1731 C.ar    1  UNL1        0.1366
      8 C         141.2776  145.3276  163.1861 C.ar    1  UNL1        0.0352
      9 C         142.4823  144.8340  163.9311 C.ar    1  UNL1        0.0619
     10 CL        143.7419  145.6485  163.9440 Cl      1  UNL1       -0.0821
     11 C         142.4274  143.5259  164.6631 C.ar    1  UNL1        0.0422
     12 C         138.8134  145.0068  162.4280 C.2     1  UNL1        0.2606
     13 N         137.4726  144.3793  162.6703 N.am    1  UNL1       -0.3241
     14 O         138.9494  146.1278  161.4408 O.2     1  UNL1       -0.2687
     15 H         137.3833  143.6435  163.3182 H       1  UNL1        0.1453
     16 H         136.6819  144.7033  162.1813 H       1  UNL1        0.1453
     17 C         140.4173  140.3744  165.7083 C.3     1  UNL1        0.0896
     18 C         139.6963  140.3020  167.0216 C.3     1  UNL1        0.0246
     19 C         140.1455  139.3507  164.6461 C.3     1  UNL1        0.0562
     20 C         138.8537  139.3852  163.8843 C.3     1  UNL1        0.0217
     21 C         138.5820  138.3615  162.8221 C.3     1  UNL1        0.0688
     22 N         139.6019  137.3035  162.5217 N.3     1  UNL1       -0.2952
     23 C         140.8937  137.2690  163.2834 C.3     1  UNL1        0.1043
     24 C         141.1654  138.2927  164.3456 C.3     1  UNL1        0.1784
     25 F         142.4571  138.2583  165.1074 F       1  UNL1       -0.2357
     26 H         139.8442  137.3995  161.5355 H       1  UNL1        0.1233
@<TRIPOS>BOND
     1     1     2    1
     2     2     3   ar
     3     3     4   ar
     4     4    17    1
     5    17    18    1
     6    17    19    1
     7    19    20    1
     8    20    21    1
     9    21    22    1
    10    22    23    1
    11    23    24    1
    12    24    25    1
    13     4     5   ar
    14     5     6   ar
    15     6     7   ar
    16     7    12    1
    17    12    13   am
    18    12    14    2
    19     7     8   ar
    20     8     9   ar
    21     9    10    1
    22     9    11   ar
    23    11     2   ar
    24    24    19    1
    25    11     5   ar
    26    22    26    1
    27    13    15    1
    28    13    16    1
@<TRIPOS>MOLECULE
*****
 26 28 0 0 0
SMALL
GASTEIGER

@<TRIPOS>ATOM
      1 C         142.8142  142.8923  170.3063 C.3     1  UNL1        0.0327
      2 C         142.5624  142.2997  168.9515 C.ar    1  UNL1       -0.0009
      3 C         143.4337  142.4639  167.7416 C.ar    1  UNL1        0.0727
      4 N         142.8049  141.7046  166.6111 N.ar    1  UNL1       -0.3135
      5 C         141.5450  141.0711  167.1223 C.ar    1  UNL1        0.1444
      6 N         140.5149  140.2068  166.4576 N.ar    1  UNL1       -0.2237
      7 C         139.3349  139.7104  167.2393 C.ar    1  UNL1        0.1366
      8 C         139.1850  140.0783  168.6858 C.ar    1  UNL1        0.0352
      9 C         140.2151  140.9425  169.3505 C.ar    1  UNL1        0.0619
     10 CL        140.0653  141.3104  170.7969 Cl      1  UNL1       -0.0821
     11 C         141.3951  141.4389  168.5688 C.ar    1  UNL1        0.0422
     12 C         138.3047  138.8461  166.5746 C.2     1  UNL1        0.2606
     13 N         137.3221  138.0761  167.4062 N.am    1  UNL1       -0.3241
     14 O         138.2572  138.7519  165.0784 O.2     1  UNL1       -0.2687
     15 H         137.3534  138.1380  168.3883 H       1  UNL1        0.1453
     16 H         136.6460  137.5088  166.9700 H       1  UNL1        0.1453
     17 C         143.3418  141.5975  165.2146 C.3     1  UNL1        0.0896
     18 C         144.0671  140.3576  164.7829 C.3     1  UNL1        0.0246
     19 C         143.1533  142.7305  164.2496 C.3     1  UNL1        0.0562
     20 C         142.1744  142.5991  163.1207 C.3     1  UNL1        0.0217
     21 C         141.9860  143.7320  162.1559 C.3     1  UNL1        0.0688
     22 N         142.7764  144.9963  162.3199 N.3     1  UNL1       -0.2952
     23 C         143.7553  145.1276  163.4489 C.3     1  UNL1        0.1043
     24 C         143.9437  143.9947  164.4137 C.3     1  UNL1        0.1784
     25 F         144.9226  144.1259  165.5427 F       1  UNL1       -0.2357
     26 H         142.1016  145.7538  162.4257 H       1  UNL1        0.1233
@<TRIPOS>BOND
     1     1     2    1
     2     2     3   ar
     3     3     4   ar
     4     4    17    1
     5    17    18    1
     6    17    19    1
     7    19    20    1
     8    20    21    1
     9    21    22    1
    10    22    23    1
    11    23    24    1
    12    24    25    1
    13     4     5   ar
    14     5     6   ar
    15     6     7   ar
    16     7    12    1
    17    12    13   am
    18    12    14    2
    19     7     8   ar
    20     8     9   ar
    21     9    10    1
    22     9    11   ar
    23    11     2   ar
    24    24    19    1
    25    11     5   ar
    26    22    26    1
    27    13    15    1
    28    13    16    1
@<TRIPOS>MOLECULE
*****
 26 28 0 0 0
SMALL
GASTEIGER

@<TRIPOS>ATOM
      1 C         144.7778  139.2205  164.8256 C.3     1  UNL1        0.0327
      2 C         143.5315  139.8877  165.3271 C.ar    1  UNL1       -0.0009
      3 C         142.6439  139.3851  166.4270 C.ar    1  UNL1        0.0727
      4 N         141.5178  140.3614  166.5964 N.ar    1  UNL1       -0.3135
      5 C         141.7094  141.4674  165.6013 C.ar    1  UNL1        0.1444
      6 N         140.9114  142.7032  165.3082 N.ar    1  UNL1       -0.2237
      7 C         141.3580  143.6462  164.2306 C.ar    1  UNL1        0.1366
      8 C         142.6025  143.3534  163.4462 C.ar    1  UNL1        0.0352
      9 C         143.4005  142.1176  163.7393 C.ar    1  UNL1        0.0619
     10 CL        144.6450  141.8248  162.9548 Cl      1  UNL1       -0.0821
     11 C         142.9539  141.1746  164.8169 C.ar    1  UNL1        0.0422
     12 C         140.5600  144.8821  163.9375 C.2     1  UNL1        0.2606
     13 N         141.1528  145.9766  163.1004 N.am    1  UNL1       -0.3241
     14 O         139.1693  145.0235  164.4814 O.2     1  UNL1       -0.2687
     15 H         142.0656  145.8838  162.7434 H       1  UNL1        0.1453
     16 H         140.6291  146.7877  162.9080 H       1  UNL1        0.1453
     17 C         140.3969  140.2512  167.5870 C.3     1  UNL1        0.0896
     18 C         139.1356  139.5295  167.2153 C.3     1  UNL1        0.0246
     19 C         140.5372  140.8627  168.9496 C.3     1  UNL1        0.0562
     20 C         139.8800  142.1763  169.2535 C.3     1  UNL1        0.0217
     21 C         140.0203  142.7877  170.6159 C.3     1  UNL1        0.0688
     22 N         140.8180  142.0856  171.6746 N.3     1  UNL1       -0.2952
     23 C         141.4752  140.7719  171.3708 C.3     1  UNL1        0.1043
     24 C         141.3348  140.1605  170.0083 C.3     1  UNL1        0.1784
     25 F         141.9921  138.8468  169.7043 F       1  UNL1       -0.2357
     26 H         140.1875  141.9247  172.4601 H       1  UNL1        0.1233
@<TRIPOS>BOND
     1     1     2    1
     2     2     3   ar
     3     3     4   ar
     4     4    17    1
     5    17    18    1
     6    17    19    1
     7    19    20    1
     8    20    21    1
     9    21    22    1
    10    22    23    1
    11    23    24    1
    12    24    25    1
    13     4     5   ar
    14     5     6   ar
    15     6     7   ar
    16     7    12    1
    17    12    13   am
    18    12    14    2
    19     7     8   ar
    20     8     9   ar
    21     9    10    1
    22     9    11   ar
    23    11     2   ar
    24    24    19    1
    25    11     5   ar
    26    22    26    1
    27    13    15    1
    28    13    16    1
