@<TRIPOS>MOLECULE
*****
 35 40 0 0 0
SMALL
GASTEIGER

@<TRIPOS>ATOM
      1 C         138.5708  139.6985  163.9376 C.ar    1  UNL1        0.0377
      2 C         138.7429  138.4900  163.0659 C.ar    1  UNL1        0.0031
      3 C         138.7032  138.6303  161.5731 C.ar    1  UNL1        0.0002
      4 C         138.4914  139.9790  160.9518 C.ar    1  UNL1        0.0042
      5 C         138.4518  140.1193  159.4589 C.ar    1  UNL1        0.0208
      6 C         138.2401  141.4680  158.8377 C.ar    1  UNL1        0.1003
      7 N         138.0680  142.6766  159.7093 N.ar    1  UNL1       -0.2294
      8 C         138.1077  142.5364  161.2022 C.ar    1  UNL1        0.1285
      9 C         138.3194  141.1876  161.8235 C.ar    1  UNL1        0.0315
     10 C         138.3591  141.0473  163.3164 C.ar    1  UNL1        0.0059
     11 C         143.4724  142.3113  169.4924 C.3     1  UNL1        0.1124
     12 N         142.2541  141.4782  169.7599 N.pl3   1  UNL1       -0.2987
     13 C         141.9044  141.0908  171.1661 C.3     1  UNL1        0.1387
     14 C         140.6860  140.2577  171.4336 C.3     1  UNL1        0.2269
     15 O         139.8175  139.8119  170.2949 O.3     1  UNL1       -0.4692
     16 C         140.1672  140.1993  168.8886 C.ar    1  UNL1        0.1907
     17 C         141.3855  141.0324  168.6211 C.ar    1  UNL1        0.1067
     18 C         141.7353  141.4198  167.2148 C.ar    1  UNL1        0.1382
     19 N         140.8667  140.9740  166.0760 N.ar    1  UNL1       -0.1593
     20 N         139.6484  140.1408  166.3435 N.ar    1  UNL1       -0.1884
     21 C         138.6105  139.5583  165.4306 C.ar    1  UNL1        0.1866
     22 N         137.6194  138.8109  166.2726 N.ar    1  UNL1       -0.1268
     23 N         138.0446  138.9316  167.7060 N.ar    1  UNL1       -0.1237
     24 C         139.2986  139.7535  167.7498 C.ar    1  UNL1        0.2217
     25 N         137.9357  143.7449  162.0740 N.pl3   1  UNL1       -0.3159
     26 H         137.0838  143.8958  162.5438 H       1  UNL1        0.1483
     27 C         139.0617  144.7236  162.2299 C.3     1  UNL1        0.1212
     28 C         140.2065  144.4099  163.1470 C.3     1  UNL1        0.1543
     29 F         139.0778  144.4245  164.1348 F       1  UNL1       -0.2382
     30 C         140.9376  144.5042  161.8406 C.3     1  UNL1        0.0514
     31 C         142.4215  144.2899  161.7944 C.3     1  UNL1        0.0714
     32 N         143.1742  143.9812  163.0546 N.3     1  UNL1       -0.2973
     33 C         142.4432  143.8869  164.3610 C.3     1  UNL1        0.0714
     34 C         140.9593  144.1012  164.4072 C.3     1  UNL1        0.0514
     35 H         143.8783  144.7112  163.1633 H       1  UNL1        0.1233
@<TRIPOS>BOND
     1    11    12    1
     2    12    13    1
     3    13    14    1
     4    14    15    1
     5    15    16    1
     6    16    17   ar
     7    17    18   ar
     8    18    19   ar
     9    19    20   ar
    10    20    21   ar
    11    21     1    1
    12     1     2   ar
    13     2     3   ar
    14     3     4   ar
    15     4     5   ar
    16     5     6   ar
    17     6     7   ar
    18     7     8   ar
    19     8    25    1
    20    25    27    1
    21    27    28    1
    22    28    29    1
    23    28    30    1
    24    30    31    1
    25    31    32    1
    26    32    33    1
    27    33    34    1
    28     8     9   ar
    29     9    10   ar
    30    21    22   ar
    31    22    23   ar
    32    23    24   ar
    33    17    12    1
    34    24    20   ar
    35    24    16   ar
    36    10     1   ar
    37     9     4   ar
    38    34    28    1
    39    25    26    1
    40    32    35    1
@<TRIPOS>MOLECULE
*****
 35 40 0 0 0
SMALL
GASTEIGER

@<TRIPOS>ATOM
      1 C         138.7790  139.5771  163.8842 C.ar    1  UNL1        0.0377
      2 C         137.6981  140.3248  163.1613 C.ar    1  UNL1        0.0031
      3 C         137.7191  140.4119  161.6640 C.ar    1  UNL1        0.0002
      4 C         138.8209  139.7514  160.8896 C.ar    1  UNL1        0.0042
      5 C         138.8418  139.8386  159.3923 C.ar    1  UNL1        0.0208
      6 C         139.9436  139.1780  158.6179 C.ar    1  UNL1        0.1003
      7 N         141.0245  138.4303  159.3409 N.ar    1  UNL1       -0.2294
      8 C         141.0036  138.3431  160.8382 C.ar    1  UNL1        0.1285
      9 C         139.9018  139.0037  161.6125 C.ar    1  UNL1        0.0315
     10 C         139.8808  138.9166  163.1099 C.ar    1  UNL1        0.0059
     11 C         143.4830  142.3435  169.5347 C.3     1  UNL1        0.1124
     12 N         142.2465  141.5312  169.7825 N.pl3   1  UNL1       -0.2987
     13 C         141.8374  141.1974  171.1865 C.3     1  UNL1        0.1387
     14 C         140.6010  140.3851  171.4343 C.3     1  UNL1        0.2269
     15 O         139.7737  139.9066  170.2782 O.3     1  UNL1       -0.4692
     16 C         140.1829  140.2403  168.8743 C.ar    1  UNL1        0.1907
     17 C         141.4193  141.0527  168.6264 C.ar    1  UNL1        0.1067
     18 C         141.8284  141.3864  167.2224 C.ar    1  UNL1        0.1382
     19 N         141.0012  140.9079  166.0663 N.ar    1  UNL1       -0.1593
     20 N         139.7647  140.0956  166.3142 N.ar    1  UNL1       -0.1884
     21 C         138.7580  139.4900  165.3816 C.ar    1  UNL1        0.1866
     22 N         137.7267  138.7819  166.2092 N.ar    1  UNL1       -0.1268
     23 N         138.0960  138.9499  167.6533 N.ar    1  UNL1       -0.1237
     24 C         139.3556  139.7618  167.7181 C.ar    1  UNL1        0.2217
     25 N         142.0845  137.5954  161.5612 N.pl3   1  UNL1       -0.3159
     26 H         141.9014  136.7021  161.9323 H       1  UNL1        0.1483
     27 C         143.4442  138.2089  161.7187 C.3     1  UNL1        0.1212
     28 C         143.7188  139.1406  162.8617 C.3     1  UNL1        0.1543
     29 F         143.1010  137.9928  163.6039 F       1  UNL1       -0.2382
     30 C         144.2413  139.9647  161.7226 C.3     1  UNL1        0.0514
     31 C         144.8239  141.3220  161.9842 C.3     1  UNL1        0.0714
     32 N         144.8839  141.8551  163.3850 N.3     1  UNL1       -0.2973
     33 C         144.3614  141.0309  164.5242 C.3     1  UNL1        0.0714
     34 C         143.7789  139.6736  164.2625 C.3     1  UNL1        0.0514
     35 H         144.3596  142.7300  163.3898 H       1  UNL1        0.1233
@<TRIPOS>BOND
     1    11    12    1
     2    12    13    1
     3    13    14    1
     4    14    15    1
     5    15    16    1
     6    16    17   ar
     7    17    18   ar
     8    18    19   ar
     9    19    20   ar
    10    20    21   ar
    11    21     1    1
    12     1     2   ar
    13     2     3   ar
    14     3     4   ar
    15     4     5   ar
    16     5     6   ar
    17     6     7   ar
    18     7     8   ar
    19     8    25    1
    20    25    27    1
    21    27    28    1
    22    28    29    1
    23    28    30    1
    24    30    31    1
    25    31    32    1
    26    32    33    1
    27    33    34    1
    28     8     9   ar
    29     9    10   ar
    30    21    22   ar
    31    22    23   ar
    32    23    24   ar
    33    17    12    1
    34    24    20   ar
    35    24    16   ar
    36    10     1   ar
    37     9     4   ar
    38    34    28    1
    39    25    26    1
    40    32    35    1
@<TRIPOS>MOLECULE
*****
 35 40 0 0 0
SMALL
GASTEIGER

@<TRIPOS>ATOM
      1 C         142.4695  142.5258  165.4123 C.ar    1  UNL1        0.0377
      2 C         143.4456  142.7421  166.5305 C.ar    1  UNL1        0.0031
      3 C         143.1710  142.1654  167.8877 C.ar    1  UNL1        0.0002
      4 C         141.9203  141.3724  168.1266 C.ar    1  UNL1        0.0042
      5 C         141.6458  140.7956  169.4838 C.ar    1  UNL1        0.0208
      6 C         140.3952  140.0026  169.7227 C.ar    1  UNL1        0.1003
      7 N         139.4191  139.7863  168.6045 N.ar    1  UNL1       -0.2294
      8 C         139.6937  140.3631  167.2473 C.ar    1  UNL1        0.1285
      9 C         140.9443  141.1561  167.0083 C.ar    1  UNL1        0.0315
     10 C         141.2189  141.7329  165.6511 C.ar    1  UNL1        0.0059
     11 C         138.4570  142.6262  158.6596 C.3     1  UNL1        0.1124
     12 N         139.8038  143.2568  158.8554 N.pl3   1  UNL1       -0.2987
     13 C         140.4724  143.9667  157.7156 C.3     1  UNL1        0.1387
     14 C         141.8192  144.5973  157.9113 C.3     1  UNL1        0.2269
     15 O         142.4975  144.5181  159.2468 O.3     1  UNL1       -0.4692
     16 C         141.8289  143.8083  160.3866 C.ar    1  UNL1        0.1907
     17 C         140.4821  143.1776  160.1909 C.ar    1  UNL1        0.1067
     18 C         139.8135  142.4677  161.3307 C.ar    1  UNL1        0.1382
     19 N         140.4918  142.3885  162.6662 N.ar    1  UNL1       -0.1593
     20 N         141.8387  143.0192  162.8620 N.ar    1  UNL1       -0.1884
     21 C         142.7441  143.1026  164.0550 C.ar    1  UNL1        0.1866
     22 N         143.9722  143.8640  163.6525 N.ar    1  UNL1       -0.1268
     23 N         143.8258  144.2512  162.2107 N.ar    1  UNL1       -0.1237
     24 C         142.5072  143.7290  161.7222 C.ar    1  UNL1        0.2217
     25 N         138.7176  140.1468  166.1289 N.pl3   1  UNL1       -0.3159
     26 H         138.1367  140.8845  165.8330 H       1  UNL1        0.1483
     27 C         138.6268  138.8066  165.4615 C.3     1  UNL1        0.1212
     28 C         139.1387  138.6290  164.0628 C.3     1  UNL1        0.1543
     29 F         138.0380  139.6171  163.8138 F       1  UNL1       -0.2382
     30 C         140.0616  137.7026  164.7975 C.3     1  UNL1        0.0514
     31 C         141.1142  136.9417  164.0471 C.3     1  UNL1        0.0714
     32 N         141.2438  137.1074  162.5619 N.3     1  UNL1       -0.2973
     33 C         140.3209  138.0338  161.8271 C.3     1  UNL1        0.0714
     34 C         139.2683  138.7946  162.5776 C.3     1  UNL1        0.0514
     35 H         141.1210  136.1821  162.1506 H       1  UNL1        0.1233
@<TRIPOS>BOND
     1    11    12    1
     2    12    13    1
     3    13    14    1
     4    14    15    1
     5    15    16    1
     6    16    17   ar
     7    17    18   ar
     8    18    19   ar
     9    19    20   ar
    10    20    21   ar
    11    21     1    1
    12     1     2   ar
    13     2     3   ar
    14     3     4   ar
    15     4     5   ar
    16     5     6   ar
    17     6     7   ar
    18     7     8   ar
    19     8    25    1
    20    25    27    1
    21    27    28    1
    22    28    29    1
    23    28    30    1
    24    30    31    1
    25    31    32    1
    26    32    33    1
    27    33    34    1
    28     8     9   ar
    29     9    10   ar
    30    21    22   ar
    31    22    23   ar
    32    23    24   ar
    33    17    12    1
    34    24    20   ar
    35    24    16   ar
    36    10     1   ar
    37     9     4   ar
    38    34    28    1
    39    25    26    1
    40    32    35    1
@<TRIPOS>MOLECULE
*****
 35 40 0 0 0
SMALL
GASTEIGER

@<TRIPOS>ATOM
      1 C         142.7404  142.2518  166.0233 C.ar    1  UNL1        0.0377
      2 C         143.5449  142.5512  167.2534 C.ar    1  UNL1        0.0031
      3 C         143.0442  142.1207  168.6002 C.ar    1  UNL1        0.0002
      4 C         141.7390  141.3907  168.7169 C.ar    1  UNL1        0.0042
      5 C         141.2383  140.9602  170.0637 C.ar    1  UNL1        0.0208
      6 C         139.9332  140.2302  170.1804 C.ar    1  UNL1        0.1003
      7 N         139.1287  139.9307  168.9503 N.ar    1  UNL1       -0.2294
      8 C         139.6294  140.3612  167.6035 C.ar    1  UNL1        0.1285
      9 C         140.9345  141.0912  167.4868 C.ar    1  UNL1        0.0315
     10 C         141.4353  141.5218  166.1399 C.ar    1  UNL1        0.0059
     11 C         143.1108  138.7371  159.0078 C.3     1  UNL1        0.1124
     12 N         143.5853  140.1331  159.2831 N.pl3   1  UNL1       -0.2987
     13 C         144.1785  140.9554  158.1777 C.3     1  UNL1        0.1387
     14 C         144.6529  142.3514  158.4530 C.3     1  UNL1        0.2269
     15 O         144.5342  142.9253  159.8337 O.3     1  UNL1       -0.4692
     16 C         143.9410  142.1031  160.9392 C.ar    1  UNL1        0.1907
     17 C         143.4666  140.7070  160.6638 C.ar    1  UNL1        0.1067
     18 C         142.8733  139.8848  161.7694 C.ar    1  UNL1        0.1382
     19 N         142.7546  140.4586  163.1501 N.ar    1  UNL1       -0.1593
     20 N         143.2291  141.8547  163.4255 N.ar    1  UNL1       -0.1884
     21 C         143.2412  142.6823  164.6764 C.ar    1  UNL1        0.1866
     22 N         143.8418  144.0160  164.3441 N.ar    1  UNL1       -0.1268
     23 N         144.2010  144.0127  162.8877 N.ar    1  UNL1       -0.1237
     24 C         143.8223  142.6769  162.3200 C.ar    1  UNL1        0.2217
     25 N         138.8249  140.0618  166.3733 N.pl3   1  UNL1       -0.3159
     26 H         138.2923  140.7724  165.9484 H       1  UNL1        0.1483
     27 C         138.8321  138.6796  165.7907 C.3     1  UNL1        0.1212
     28 C         139.1086  138.4830  164.3295 C.3     1  UNL1        0.1543
     29 F         137.9044  139.3736  164.2492 F       1  UNL1       -0.2382
     30 C         140.2168  137.6606  164.9174 C.3     1  UNL1        0.0514
     31 C         141.1834  136.9510  164.0161 C.3     1  UNL1        0.0714
     32 N         141.0417  137.0638  162.5271 N.3     1  UNL1       -0.2973
     33 C         139.9335  137.8861  161.9393 C.3     1  UNL1        0.0714
     34 C         138.9669  138.5958  162.8405 C.3     1  UNL1        0.0514
     35 H         140.9261  136.1155  162.1697 H       1  UNL1        0.1233
@<TRIPOS>BOND
     1    11    12    1
     2    12    13    1
     3    13    14    1
     4    14    15    1
     5    15    16    1
     6    16    17   ar
     7    17    18   ar
     8    18    19   ar
     9    19    20   ar
    10    20    21   ar
    11    21     1    1
    12     1     2   ar
    13     2     3   ar
    14     3     4   ar
    15     4     5   ar
    16     5     6   ar
    17     6     7   ar
    18     7     8   ar
    19     8    25    1
    20    25    27    1
    21    27    28    1
    22    28    29    1
    23    28    30    1
    24    30    31    1
    25    31    32    1
    26    32    33    1
    27    33    34    1
    28     8     9   ar
    29     9    10   ar
    30    21    22   ar
    31    22    23   ar
    32    23    24   ar
    33    17    12    1
    34    24    20   ar
    35    24    16   ar
    36    10     1   ar
    37     9     4   ar
    38    34    28    1
    39    25    26    1
    40    32    35    1
@<TRIPOS>MOLECULE
*****
 35 40 0 0 0
SMALL
GASTEIGER

@<TRIPOS>ATOM
      1 C         138.8901  140.1458  164.7558 C.ar    1  UNL1        0.0377
      2 C         138.1689  139.2032  165.6730 C.ar    1  UNL1        0.0031
      3 C         138.4964  139.1834  167.1366 C.ar    1  UNL1        0.0002
      4 C         139.5451  140.1062  167.6831 C.ar    1  UNL1        0.0042
      5 C         139.8725  140.0863  169.1468 C.ar    1  UNL1        0.0208
      6 C         140.9212  141.0091  169.6932 C.ar    1  UNL1        0.1003
      7 N         141.6425  141.9518  168.7761 N.ar    1  UNL1       -0.2294
      8 C         141.3150  141.9716  167.3124 C.ar    1  UNL1        0.1285
      9 C         140.2663  141.0488  166.7659 C.ar    1  UNL1        0.0315
     10 C         139.9388  141.0686  165.3022 C.ar    1  UNL1        0.0059
     11 C         142.6396  137.6132  158.3343 C.3     1  UNL1        0.1124
     12 N         141.3003  138.2886  158.3235 N.pl3   1  UNL1       -0.2987
     13 C         140.5873  138.5195  157.0242 C.3     1  UNL1        0.1387
     14 C         139.2480  139.1950  157.0133 C.3     1  UNL1        0.2269
     15 O         138.6218  139.6395  158.3018 O.3     1  UNL1       -0.4692
     16 C         139.3348  139.4085  159.6011 C.ar    1  UNL1        0.1907
     17 C         140.6741  138.7331  159.6119 C.ar    1  UNL1        0.1067
     18 C         141.3871  138.5022  160.9113 C.ar    1  UNL1        0.1382
     19 N         140.7608  138.9466  162.1998 N.ar    1  UNL1       -0.1593
     20 N         139.4216  139.6221  162.1890 N.ar    1  UNL1       -0.1884
     21 C         138.5626  140.1656  163.2920 C.ar    1  UNL1        0.1866
     22 N         137.3188  140.7325  162.6744 N.ar    1  UNL1       -0.1268
     23 N         137.4089  140.5393  161.1896 N.ar    1  UNL1       -0.1237
     24 C         138.7085  139.8530  160.8897 C.ar    1  UNL1        0.2217
     25 N         142.0363  142.9142  166.3951 N.pl3   1  UNL1       -0.3159
     26 H         141.6393  143.7881  166.1760 H       1  UNL1        0.1483
     27 C         143.3623  142.5253  165.8117 C.3     1  UNL1        0.1212
     28 C         143.7131  142.9303  164.4106 C.3     1  UNL1        0.1543
     29 F         142.5958  143.8920  164.6878 F       1  UNL1       -0.2382
     30 C         144.7085  141.8280  164.6201 C.3     1  UNL1        0.0514
     31 C         145.6667  141.4646  163.5247 C.3     1  UNL1        0.0714
     32 N         145.6294  142.2036  162.2199 N.3     1  UNL1       -0.2973
     33 C         144.6339  143.3059  162.0104 C.3     1  UNL1        0.0714
     34 C         143.6757  143.6693  163.1058 C.3     1  UNL1        0.0514
     35 H         145.4570  141.5091  161.4931 H       1  UNL1        0.1233
@<TRIPOS>BOND
     1    11    12    1
     2    12    13    1
     3    13    14    1
     4    14    15    1
     5    15    16    1
     6    16    17   ar
     7    17    18   ar
     8    18    19   ar
     9    19    20   ar
    10    20    21   ar
    11    21     1    1
    12     1     2   ar
    13     2     3   ar
    14     3     4   ar
    15     4     5   ar
    16     5     6   ar
    17     6     7   ar
    18     7     8   ar
    19     8    25    1
    20    25    27    1
    21    27    28    1
    22    28    29    1
    23    28    30    1
    24    30    31    1
    25    31    32    1
    26    32    33    1
    27    33    34    1
    28     8     9   ar
    29     9    10   ar
    30    21    22   ar
    31    22    23   ar
    32    23    24   ar
    33    17    12    1
    34    24    20   ar
    35    24    16   ar
    36    10     1   ar
    37     9     4   ar
    38    34    28    1
    39    25    26    1
    40    32    35    1
@<TRIPOS>MOLECULE
*****
 35 40 0 0 0
SMALL
GASTEIGER

@<TRIPOS>ATOM
      1 C         141.6946  144.3623  163.0877 C.ar    1  UNL1        0.0377
      2 C         143.1372  144.6334  163.3962 C.ar    1  UNL1        0.0031
      3 C         143.7798  143.9996  164.5942 C.ar    1  UNL1        0.0002
      4 C         142.9798  143.0947  165.4837 C.ar    1  UNL1        0.0042
      5 C         143.6225  142.4609  166.6817 C.ar    1  UNL1        0.0208
      6 C         142.8225  141.5560  167.5712 C.ar    1  UNL1        0.1003
      7 N         141.3798  141.2849  167.2626 N.ar    1  UNL1       -0.2294
      8 C         140.7371  141.9187  166.0646 C.ar    1  UNL1        0.1285
      9 C         141.5371  142.8236  165.1752 C.ar    1  UNL1        0.0315
     10 C         140.8945  143.4575  163.9771 C.ar    1  UNL1        0.0059
     11 C         143.0420  143.9355  155.3604 C.3     1  UNL1        0.1124
     12 N         141.9631  144.7670  155.9886 N.pl3   1  UNL1       -0.2987
     13 C         141.0533  145.5908  155.1264 C.3     1  UNL1        0.1387
     14 C         139.9744  146.4223  155.7545 C.3     1  UNL1        0.2269
     15 O         139.8053  146.4300  157.2449 O.3     1  UNL1       -0.4692
     16 C         140.7152  145.6062  158.1072 C.ar    1  UNL1        0.1907
     17 C         141.7941  144.7747  157.4790 C.ar    1  UNL1        0.1067
     18 C         142.7039  143.9508  158.3413 C.ar    1  UNL1        0.1382
     19 N         142.5348  143.9585  159.8317 N.ar    1  UNL1       -0.1593
     20 N         141.4559  144.7900  160.4598 N.ar    1  UNL1       -0.1884
     21 C         141.0519  144.9962  161.8896 C.ar    1  UNL1        0.1866
     22 N         139.8923  145.9474  161.9110 N.ar    1  UNL1       -0.1268
     23 N         139.5797  146.3291  160.4944 N.ar    1  UNL1       -0.1237
     24 C         140.5461  145.6138  159.5976 C.ar    1  UNL1        0.2217
     25 N         139.2944  141.6477  165.7560 N.pl3   1  UNL1       -0.3159
     26 H         138.6653  142.3969  165.6464 H       1  UNL1        0.1483
     27 C         138.8104  140.2350  165.6143 C.3     1  UNL1        0.1212
     28 C         138.5258  139.6726  164.2532 C.3     1  UNL1        0.1543
     29 F         139.2414  138.5084  164.8716 F       1  UNL1       -0.2382
     30 C         137.9090  141.0322  164.1075 C.3     1  UNL1        0.0514
     31 C         137.2562  141.4250  162.8154 C.3     1  UNL1        0.0714
     32 N         137.2202  140.4583  161.6690 N.3     1  UNL1       -0.2973
     33 C         137.8369  139.0987  161.8147 C.3     1  UNL1        0.0714
     34 C         138.4898  138.7059  163.1068 C.3     1  UNL1        0.0514
     35 H         137.6902  140.9125  160.8860 H       1  UNL1        0.1233
@<TRIPOS>BOND
     1    11    12    1
     2    12    13    1
     3    13    14    1
     4    14    15    1
     5    15    16    1
     6    16    17   ar
     7    17    18   ar
     8    18    19   ar
     9    19    20   ar
    10    20    21   ar
    11    21     1    1
    12     1     2   ar
    13     2     3   ar
    14     3     4   ar
    15     4     5   ar
    16     5     6   ar
    17     6     7   ar
    18     7     8   ar
    19     8    25    1
    20    25    27    1
    21    27    28    1
    22    28    29    1
    23    28    30    1
    24    30    31    1
    25    31    32    1
    26    32    33    1
    27    33    34    1
    28     8     9   ar
    29     9    10   ar
    30    21    22   ar
    31    22    23   ar
    32    23    24   ar
    33    17    12    1
    34    24    20   ar
    35    24    16   ar
    36    10     1   ar
    37     9     4   ar
    38    34    28    1
    39    25    26    1
    40    32    35    1
@<TRIPOS>MOLECULE
*****
 35 40 0 0 0
SMALL
GASTEIGER

@<TRIPOS>ATOM
      1 C         139.2536  139.4261  164.8711 C.ar    1  UNL1        0.0377
      2 C         138.2045  139.0807  165.8860 C.ar    1  UNL1        0.0031
      3 C         138.4573  139.3358  167.3424 C.ar    1  UNL1        0.0002
      4 C         139.7590  139.9364  167.7838 C.ar    1  UNL1        0.0042
      5 C         140.0116  140.1915  169.2402 C.ar    1  UNL1        0.0208
      6 C         141.3133  140.7920  169.6816 C.ar    1  UNL1        0.1003
      7 N         142.3624  141.1374  168.6667 N.ar    1  UNL1       -0.2294
      8 C         142.1098  140.8823  167.2103 C.ar    1  UNL1        0.1285
      9 C         140.8081  140.2818  166.7688 C.ar    1  UNL1        0.0315
     10 C         140.5553  140.0266  165.3124 C.ar    1  UNL1        0.0059
     11 C         139.7985  143.8765  158.4208 C.3     1  UNL1        0.1124
     12 N         139.3705  142.4389  158.4257 N.pl3   1  UNL1       -0.2987
     13 C         139.0116  141.7588  157.1378 C.3     1  UNL1        0.1387
     14 C         138.5835  140.3212  157.1427 C.3     1  UNL1        0.2269
     15 O         138.5144  139.5636  158.4355 O.3     1  UNL1       -0.4692
     16 C         138.8733  140.2437  159.7234 C.ar    1  UNL1        0.1907
     17 C         139.3013  141.6813  159.7185 C.ar    1  UNL1        0.1067
     18 C         139.6603  142.3614  161.0064 C.ar    1  UNL1        0.1382
     19 N         139.5911  141.6038  162.2992 N.ar    1  UNL1       -0.1593
     20 N         139.1631  140.1662  162.3041 N.ar    1  UNL1       -0.1884
     21 C         139.0010  139.1709  163.4146 C.ar    1  UNL1        0.1866
     22 N         138.5419  137.8758  162.8130 N.ar    1  UNL1       -0.1268
     23 N         138.4202  138.0706  161.3307 N.ar    1  UNL1       -0.1237
     24 C         138.8042  139.4861  161.0162 C.ar    1  UNL1        0.2217
     25 N         143.1588  141.2277  166.1952 N.pl3   1  UNL1       -0.3159
     26 H         143.7025  140.5155  165.7873 H       1  UNL1        0.1483
     27 C         143.3795  142.6583  165.8019 C.3     1  UNL1        0.1212
     28 C         143.6954  143.0041  164.3768 C.3     1  UNL1        0.1543
     29 F         142.5344  143.9231  164.6168 F       1  UNL1       -0.2382
     30 C         144.7466  141.9650  164.6319 C.3     1  UNL1        0.0514
     31 C         145.7105  141.5908  163.5451 C.3     1  UNL1        0.0714
     32 N         145.6231  142.2559  162.2034 N.3     1  UNL1       -0.2973
     33 C         144.5719  143.2950  161.9484 C.3     1  UNL1        0.0714
     34 C         143.6080  143.6691  163.0352 C.3     1  UNL1        0.0514
     35 H         145.4781  141.5157  161.5168 H       1  UNL1        0.1233
@<TRIPOS>BOND
     1    11    12    1
     2    12    13    1
     3    13    14    1
     4    14    15    1
     5    15    16    1
     6    16    17   ar
     7    17    18   ar
     8    18    19   ar
     9    19    20   ar
    10    20    21   ar
    11    21     1    1
    12     1     2   ar
    13     2     3   ar
    14     3     4   ar
    15     4     5   ar
    16     5     6   ar
    17     6     7   ar
    18     7     8   ar
    19     8    25    1
    20    25    27    1
    21    27    28    1
    22    28    29    1
    23    28    30    1
    24    30    31    1
    25    31    32    1
    26    32    33    1
    27    33    34    1
    28     8     9   ar
    29     9    10   ar
    30    21    22   ar
    31    22    23   ar
    32    23    24   ar
    33    17    12    1
    34    24    20   ar
    35    24    16   ar
    36    10     1   ar
    37     9     4   ar
    38    34    28    1
    39    25    26    1
    40    32    35    1
@<TRIPOS>MOLECULE
*****
 35 40 0 0 0
SMALL
GASTEIGER

@<TRIPOS>ATOM
      1 C         140.2479  142.4113  165.1372 C.ar    1  UNL1        0.0377
      2 C         139.9362  143.2404  166.3478 C.ar    1  UNL1        0.0031
      3 C         140.4697  142.8371  167.6905 C.ar    1  UNL1        0.0002
      4 C         141.3148  141.6049  167.8226 C.ar    1  UNL1        0.0042
      5 C         141.8481  141.2017  169.1653 C.ar    1  UNL1        0.0208
      6 C         142.6932  139.9695  169.2974 C.ar    1  UNL1        0.1003
      7 N         143.0049  139.1405  168.0868 N.ar    1  UNL1       -0.2294
      8 C         142.4715  139.5437  166.7441 C.ar    1  UNL1        0.1285
      9 C         141.6264  140.7759  166.6120 C.ar    1  UNL1        0.0315
     10 C         141.0930  141.1792  165.2692 C.ar    1  UNL1        0.0059
     11 C         139.6169  138.7206  158.2315 C.3     1  UNL1        0.1124
     12 N         139.1724  140.1310  158.4832 N.pl3   1  UNL1       -0.2987
     13 C         138.5597  140.9335  157.3739 C.3     1  UNL1        0.1387
     14 C         138.1152  142.3439  157.6256 C.3     1  UNL1        0.2269
     15 O         138.2834  142.9517  158.9865 O.3     1  UNL1       -0.4692
     16 C         138.8960  142.1491  160.0958 C.ar    1  UNL1        0.1907
     17 C         139.3405  140.7388  159.8441 C.ar    1  UNL1        0.1067
     18 C         139.9532  139.9363  160.9535 C.ar    1  UNL1        0.1382
     19 N         140.1214  140.5441  162.3144 N.ar    1  UNL1       -0.1593
     20 N         139.6769  141.9544  162.5661 N.ar    1  UNL1       -0.1884
     21 C         139.7145  142.8146  163.7944 C.ar    1  UNL1        0.1866
     22 N         139.1251  144.1487  163.4442 N.ar    1  UNL1       -0.1268
     23 N         138.7232  144.1131  161.9995 N.ar    1  UNL1       -0.1237
     24 C         139.0642  142.7569  161.4569 C.ar    1  UNL1        0.2217
     25 N         142.7832  138.7147  165.5334 N.pl3   1  UNL1       -0.3159
     26 H         142.1425  138.0338  165.2248 H       1  UNL1        0.1483
     27 C         144.0709  138.9231  164.7930 C.3     1  UNL1        0.1212
     28 C         144.0813  139.7015  163.5108 C.3     1  UNL1        0.1543
     29 F         143.0065  138.7024  163.2003 F       1  UNL1       -0.2382
     30 C         145.1525  140.4303  164.2666 C.3     1  UNL1        0.0514
     31 C         145.8608  141.5905  163.6324 C.3     1  UNL1        0.0714
     32 N         145.4979  142.0219  162.2424 N.3     1  UNL1       -0.2973
     33 C         144.4267  141.2931  161.4865 C.3     1  UNL1        0.0714
     34 C         143.7184  140.1329  162.1207 C.3     1  UNL1        0.0514
     35 H         146.3483  141.9582  161.6828 H       1  UNL1        0.1233
@<TRIPOS>BOND
     1    11    12    1
     2    12    13    1
     3    13    14    1
     4    14    15    1
     5    15    16    1
     6    16    17   ar
     7    17    18   ar
     8    18    19   ar
     9    19    20   ar
    10    20    21   ar
    11    21     1    1
    12     1     2   ar
    13     2     3   ar
    14     3     4   ar
    15     4     5   ar
    16     5     6   ar
    17     6     7   ar
    18     7     8   ar
    19     8    25    1
    20    25    27    1
    21    27    28    1
    22    28    29    1
    23    28    30    1
    24    30    31    1
    25    31    32    1
    26    32    33    1
    27    33    34    1
    28     8     9   ar
    29     9    10   ar
    30    21    22   ar
    31    22    23   ar
    32    23    24   ar
    33    17    12    1
    34    24    20   ar
    35    24    16   ar
    36    10     1   ar
    37     9     4   ar
    38    34    28    1
    39    25    26    1
    40    32    35    1
@<TRIPOS>MOLECULE
*****
 35 40 0 0 0
SMALL
GASTEIGER

@<TRIPOS>ATOM
      1 C         139.3660  141.8647  163.1358 C.ar    1  UNL1        0.0377
      2 C         138.2679  141.7737  162.1179 C.ar    1  UNL1        0.0031
      3 C         138.4073  142.4756  160.7996 C.ar    1  UNL1        0.0002
      4 C         139.6447  143.2683  160.4991 C.ar    1  UNL1        0.0042
      5 C         139.7841  143.9701  159.1808 C.ar    1  UNL1        0.0208
      6 C         141.0215  144.7628  158.8803 C.ar    1  UNL1        0.1003
      7 N         142.1196  144.8538  159.8981 N.ar    1  UNL1       -0.2294
      8 C         141.9803  144.1520  161.2164 C.ar    1  UNL1        0.1285
      9 C         140.7428  143.3592  161.5170 C.ar    1  UNL1        0.0315
     10 C         140.6034  142.6574  162.8353 C.ar    1  UNL1        0.0059
     11 C         142.5002  143.0251  170.2448 C.3     1  UNL1        0.1124
     12 N         141.5336  141.9271  169.9130 N.pl3   1  UNL1       -0.2987
     13 C         141.1049  140.9589  170.9753 C.3     1  UNL1        0.1387
     14 C         140.1383  139.8609  170.6435 C.3     1  UNL1        0.2269
     15 O         139.6005  139.7311  169.2493 O.3     1  UNL1       -0.4692
     16 C         140.0292  140.6993  168.1869 C.ar    1  UNL1        0.1907
     17 C         140.9958  141.7973  168.5188 C.ar    1  UNL1        0.1067
     18 C         141.4245  142.7656  167.4563 C.ar    1  UNL1        0.1382
     19 N         140.8867  142.6358  166.0621 N.ar    1  UNL1       -0.1593
     20 N         139.9201  141.5378  165.7302 N.ar    1  UNL1       -0.1884
     21 C         139.2266  141.1628  164.4542 C.ar    1  UNL1        0.1866
     22 N         138.3692  139.9629  164.7279 N.ar    1  UNL1       -0.1268
     23 N         138.5329  139.5962  166.1732 N.ar    1  UNL1       -0.1237
     24 C         139.4914  140.5696  166.7926 C.ar    1  UNL1        0.2217
     25 N         143.0783  144.2429  162.2343 N.pl3   1  UNL1       -0.3159
     26 H         142.9809  144.8391  163.0117 H       1  UNL1        0.1483
     27 C         144.3248  143.4252  162.0678 C.3     1  UNL1        0.1212
     28 C         144.5846  142.2604  162.9765 C.3     1  UNL1        0.1543
     29 F         144.7934  143.3925  163.9381 F       1  UNL1       -0.2382
     30 C         144.2857  141.5329  161.6993 C.3     1  UNL1        0.0514
     31 C         144.3190  140.0336  161.6647 C.3     1  UNL1        0.0714
     32 N         144.6514  139.2620  162.9073 N.3     1  UNL1       -0.2973
     33 C         144.9504  139.9895  164.1846 C.3     1  UNL1        0.0714
     34 C         144.9170  141.4888  164.2191 C.3     1  UNL1        0.0514
     35 H         145.4721  138.6960  162.6918 H       1  UNL1        0.1233
@<TRIPOS>BOND
     1    11    12    1
     2    12    13    1
     3    13    14    1
     4    14    15    1
     5    15    16    1
     6    16    17   ar
     7    17    18   ar
     8    18    19   ar
     9    19    20   ar
    10    20    21   ar
    11    21     1    1
    12     1     2   ar
    13     2     3   ar
    14     3     4   ar
    15     4     5   ar
    16     5     6   ar
    17     6     7   ar
    18     7     8   ar
    19     8    25    1
    20    25    27    1
    21    27    28    1
    22    28    29    1
    23    28    30    1
    24    30    31    1
    25    31    32    1
    26    32    33    1
    27    33    34    1
    28     8     9   ar
    29     9    10   ar
    30    21    22   ar
    31    22    23   ar
    32    23    24   ar
    33    17    12    1
    34    24    20   ar
    35    24    16   ar
    36    10     1   ar
    37     9     4   ar
    38    34    28    1
    39    25    26    1
    40    32    35    1
