@<TRIPOS>MOLECULE
*****
 38 43 0 0 0
SMALL
GASTEIGER

@<TRIPOS>ATOM
      1 C         143.1398  141.9684  157.0605 C.3     1  UNL1        0.0652
      2 S         142.5876  140.5906  156.8442 S.3     1  UNL1       -0.0757
      3 C         141.5489  138.6684  160.0523 C.ar    1  UNL1        0.1669
      4 N         142.6801  137.8167  159.5575 N.ar    1  UNL1       -0.1282
      5 N         143.2069  138.4330  158.2955 N.ar    1  UNL1       -0.1221
      6 C         142.4013  139.6657  158.0104 C.ar    1  UNL1        0.1932
      7 N         141.3766  139.8113  159.0961 N.ar    1  UNL1       -0.2884
      8 C         140.3583  140.9072  159.2063 C.3     1  UNL1        0.1340
      9 C         143.2965  138.7851  166.6993 C.3     1  UNL1        0.0521
     10 C         142.6557  138.6941  165.3461 C.ar    1  UNL1        0.0593
     11 C         143.4714  138.9415  164.1118 C.ar    1  UNL1        0.0147
     12 C         142.8306  138.8505  162.7586 C.ar    1  UNL1        0.0028
     13 C         141.3741  138.5120  162.6397 C.ar    1  UNL1        0.0206
     14 C         140.7332  138.4210  161.2865 C.ar    1  UNL1        0.0374
     15 C         139.2767  138.0825  161.1677 C.ar    1  UNL1        0.0031
     16 C         138.4612  137.8350  162.4020 C.ar    1  UNL1        0.0016
     17 C         139.1020  137.9260  163.7552 C.ar    1  UNL1        0.0191
     18 C         140.5584  138.2645  163.8740 C.ar    1  UNL1        0.0810
     19 N         141.1992  138.3556  165.2272 N.ar    1  UNL1       -0.2497
     20 C         144.3460  142.1649  157.9302 C.3     1  UNL1        0.0135
     21 C         144.2166  142.0807  159.4223 C.3     1  UNL1        0.0182
     22 C         143.2986  143.0180  160.1495 C.3     1  UNL1        0.0721
     23 N         143.0631  142.8461  161.6209 N.3     1  UNL1       -0.2721
     24 C         141.6808  142.4151  162.0127 C.3     1  UNL1        0.0768
     25 C         141.1350  142.1595  163.3864 C.3     1  UNL1        0.0433
     26 C         141.8367  142.2718  164.7073 C.ar    1  UNL1       -0.0250
     27 C         140.9223  141.9251  165.8448 C.ar    1  UNL1       -0.0070
     28 C         141.4287  141.9741  167.2558 C.ar    1  UNL1        0.0017
     29 C         142.8495  142.3696  167.5295 C.ar    1  UNL1        0.0509
     30 C         143.7639  142.7163  166.3920 C.ar    1  UNL1       -0.0003
     31 C         143.2575  142.6673  164.9810 C.ar    1  UNL1       -0.0246
     32 C         144.3275  143.0484  164.0012 C.3     1  UNL1        0.0433
     33 C         144.2409  143.1279  162.5058 C.3     1  UNL1        0.0768
     34 C         143.0646  142.3284  169.0134 C.2     1  UNL1        0.2490
     35 O         144.3431  142.6515  169.7283 O.2     1  UNL1       -0.2699
     36 N         141.7767  141.9073  169.6569 N.am    1  UNL1       -0.2702
     37 C         141.5412  141.7354  171.1283 C.3     1  UNL1        0.1155
     38 C         140.7657  141.6884  168.5706 C.3     1  UNL1        0.1206
@<TRIPOS>BOND
     1     9    10    1
     2    10    11   ar
     3    11    12   ar
     4    12    13   ar
     5    13    14   ar
     6    14     3    1
     7     3     4   ar
     8     4     5   ar
     9     5     6   ar
    10     6     2    1
    11     2     1    1
    12     1    20    1
    13    20    21    1
    14    21    22    1
    15    22    23    1
    16    23    24    1
    17    24    25    1
    18    25    26    1
    19    26    27   ar
    20    27    28   ar
    21    28    29   ar
    22    29    30   ar
    23    30    31   ar
    24    31    32    1
    25    32    33    1
    26    29    34    1
    27    34    35    2
    28    34    36   am
    29    36    37    1
    30    36    38    1
    31     6     7   ar
    32     7     8    1
    33    14    15   ar
    34    15    16   ar
    35    16    17   ar
    36    17    18   ar
    37    18    19   ar
    38    19    10   ar
    39    18    13   ar
    40     7     3   ar
    41    33    23    1
    42    31    26   ar
    43    38    28    1
@<TRIPOS>MOLECULE
*****
 38 43 0 0 0
SMALL
GASTEIGER

@<TRIPOS>ATOM
      1 C         142.8867  143.8467  158.0444 C.3     1  UNL1        0.0652
      2 S         143.7012  142.6307  158.3728 S.3     1  UNL1       -0.0757
      3 C         142.9374  140.3982  161.4548 C.ar    1  UNL1        0.1669
      4 N         141.9423  139.8732  160.4628 N.ar    1  UNL1       -0.1282
      5 N         142.1072  140.6455  159.1876 N.ar    1  UNL1       -0.1221
      6 C         143.2043  141.6479  159.3914 C.ar    1  UNL1        0.1932
      7 N         143.7174  141.4951  160.7926 N.ar    1  UNL1       -0.2884
      8 C         144.8174  142.2981  161.4213 C.3     1  UNL1        0.1340
      9 C         138.3482  139.1562  166.4194 C.3     1  UNL1        0.0521
     10 C         139.5413  139.3451  165.5300 C.ar    1  UNL1        0.0593
     11 C         139.3582  139.8315  164.1228 C.ar    1  UNL1        0.0147
     12 C         140.5513  140.0204  163.2335 C.ar    1  UNL1        0.0028
     13 C         141.9273  139.7229  163.7512 C.ar    1  UNL1        0.0206
     14 C         143.1204  139.9118  162.8619 C.ar    1  UNL1        0.0374
     15 C         144.4965  139.6143  163.3796 C.ar    1  UNL1        0.0031
     16 C         144.6794  139.1280  164.7867 C.ar    1  UNL1        0.0016
     17 C         143.4863  138.9390  165.6761 C.ar    1  UNL1        0.0191
     18 C         142.1103  139.2365  165.1583 C.ar    1  UNL1        0.0810
     19 N         140.9173  139.0476  166.0477 N.ar    1  UNL1       -0.2497
     20 C         141.5758  144.0803  158.7350 C.3     1  UNL1        0.0135
     21 C         141.4679  145.1252  159.8058 C.3     1  UNL1        0.0182
     22 C         140.3585  145.0553  160.8129 C.3     1  UNL1        0.0721
     23 N         140.6131  144.4688  162.1698 N.3     1  UNL1       -0.2721
     24 C         142.0513  144.2061  162.5057 C.3     1  UNL1        0.0768
     25 C         142.6275  143.6323  163.7663 C.3     1  UNL1        0.0433
     26 C         141.9079  143.1794  165.0019 C.ar    1  UNL1       -0.0250
     27 C         142.8653  142.6669  166.0368 C.ar    1  UNL1       -0.0070
     28 C         142.3491  142.1635  167.3521 C.ar    1  UNL1        0.0017
     29 C         140.8756  142.1726  167.6327 C.ar    1  UNL1        0.0509
     30 C         139.9182  142.6851  166.5978 C.ar    1  UNL1       -0.0003
     31 C         140.4344  143.1885  165.2825 C.ar    1  UNL1       -0.0246
     32 C         139.3166  143.6527  164.3965 C.3     1  UNL1        0.0433
     33 C         139.3962  144.2225  163.0112 C.3     1  UNL1        0.0768
     34 C         140.6625  141.6176  169.0098 C.2     1  UNL1        0.2490
     35 O         139.3398  141.4450  169.6959 O.2     1  UNL1       -0.2699
     36 N         142.0042  141.2655  169.5804 N.am    1  UNL1       -0.2702
     37 C         142.2590  140.6790  170.9373 C.3     1  UNL1        0.1155
     38 C         143.0466  141.6029  168.5559 C.3     1  UNL1        0.1206
@<TRIPOS>BOND
     1     9    10    1
     2    10    11   ar
     3    11    12   ar
     4    12    13   ar
     5    13    14   ar
     6    14     3    1
     7     3     4   ar
     8     4     5   ar
     9     5     6   ar
    10     6     2    1
    11     2     1    1
    12     1    20    1
    13    20    21    1
    14    21    22    1
    15    22    23    1
    16    23    24    1
    17    24    25    1
    18    25    26    1
    19    26    27   ar
    20    27    28   ar
    21    28    29   ar
    22    29    30   ar
    23    30    31   ar
    24    31    32    1
    25    32    33    1
    26    29    34    1
    27    34    35    2
    28    34    36   am
    29    36    37    1
    30    36    38    1
    31     6     7   ar
    32     7     8    1
    33    14    15   ar
    34    15    16   ar
    35    16    17   ar
    36    17    18   ar
    37    18    19   ar
    38    19    10   ar
    39    18    13   ar
    40     7     3   ar
    41    33    23    1
    42    31    26   ar
    43    38    28    1
@<TRIPOS>MOLECULE
*****
 38 43 0 0 0
SMALL
GASTEIGER

@<TRIPOS>ATOM
      1 C         142.2724  140.0045  156.9134 C.3     1  UNL1        0.0652
      2 S         140.9329  140.6772  156.8564 S.3     1  UNL1       -0.0757
      3 C         138.8427  140.8866  160.1203 C.ar    1  UNL1        0.1669
      4 N         138.1557  139.7594  159.4080 N.ar    1  UNL1       -0.1282
      5 N         138.8550  139.5437  158.0986 N.ar    1  UNL1       -0.1221
      6 C         139.9743  140.5376  158.0017 C.ar    1  UNL1        0.1932
      7 N         139.9666  141.3676  159.2512 N.ar    1  UNL1       -0.2884
      8 C         140.9162  142.4827  159.5747 C.3     1  UNL1        0.1340
      9 C         138.4757  137.8513  166.2768 C.3     1  UNL1        0.0521
     10 C         138.4746  138.7475  165.0740 C.ar    1  UNL1        0.0593
     11 C         138.8462  138.1978  163.7287 C.ar    1  UNL1        0.0147
     12 C         138.8450  139.0940  162.5259 C.ar    1  UNL1        0.0028
     13 C         138.4722  140.5400  162.6683 C.ar    1  UNL1        0.0206
     14 C         138.4710  141.4363  161.4655 C.ar    1  UNL1        0.0374
     15 C         138.0983  142.8822  161.6080 C.ar    1  UNL1        0.0031
     16 C         137.7266  143.4319  162.9532 C.ar    1  UNL1        0.0016
     17 C         137.7278  142.5356  164.1561 C.ar    1  UNL1        0.0191
     18 C         138.1006  141.0897  164.0136 C.ar    1  UNL1        0.0810
     19 N         138.1018  140.1935  165.2164 N.ar    1  UNL1       -0.2497
     20 C         142.6158  139.1142  158.0707 C.3     1  UNL1        0.0135
     21 C         143.2627  139.6914  159.2949 C.3     1  UNL1        0.0182
     22 C         143.4407  138.8437  160.5194 C.3     1  UNL1        0.0721
     23 N         142.9613  139.3399  161.8513 N.3     1  UNL1       -0.2721
     24 C         142.5671  140.7863  161.9035 C.3     1  UNL1        0.0768
     25 C         142.0537  141.5741  163.0722 C.3     1  UNL1        0.0433
     26 C         141.8078  141.1102  164.4772 C.ar    1  UNL1       -0.0250
     27 C         141.2892  142.2232  165.3389 C.ar    1  UNL1       -0.0070
     28 C         140.9774  141.9698  166.7841 C.ar    1  UNL1        0.0017
     29 C         141.1841  140.6035  167.3677 C.ar    1  UNL1        0.0509
     30 C         141.7027  139.4906  166.5059 C.ar    1  UNL1       -0.0003
     31 C         142.0145  139.7439  165.0608 C.ar    1  UNL1       -0.0246
     32 C         142.5182  138.5041  164.3833 C.3     1  UNL1        0.0433
     33 C         142.9395  138.3243  162.9549 C.3     1  UNL1        0.0768
     34 C         140.7921  140.6533  168.8146 C.2     1  UNL1        0.2490
     35 O         140.8406  139.5072  169.7812 O.2     1  UNL1       -0.2699
     36 N         140.3431  142.0503  169.1254 N.am    1  UNL1       -0.2702
     37 C         139.8637  142.5467  170.4573 C.3     1  UNL1        0.1155
     38 C         140.4576  142.8640  167.8705 C.3     1  UNL1        0.1206
@<TRIPOS>BOND
     1     9    10    1
     2    10    11   ar
     3    11    12   ar
     4    12    13   ar
     5    13    14   ar
     6    14     3    1
     7     3     4   ar
     8     4     5   ar
     9     5     6   ar
    10     6     2    1
    11     2     1    1
    12     1    20    1
    13    20    21    1
    14    21    22    1
    15    22    23    1
    16    23    24    1
    17    24    25    1
    18    25    26    1
    19    26    27   ar
    20    27    28   ar
    21    28    29   ar
    22    29    30   ar
    23    30    31   ar
    24    31    32    1
    25    32    33    1
    26    29    34    1
    27    34    35    2
    28    34    36   am
    29    36    37    1
    30    36    38    1
    31     6     7   ar
    32     7     8    1
    33    14    15   ar
    34    15    16   ar
    35    16    17   ar
    36    17    18   ar
    37    18    19   ar
    38    19    10   ar
    39    18    13   ar
    40     7     3   ar
    41    33    23    1
    42    31    26   ar
    43    38    28    1
@<TRIPOS>MOLECULE
*****
 38 43 0 0 0
SMALL
GASTEIGER

@<TRIPOS>ATOM
      1 C         141.0432  140.1556  157.8181 C.3     1  UNL1        0.0652
      2 S         142.5332  140.1089  157.9842 S.3     1  UNL1       -0.0757
      3 C         143.7173  140.8469  161.6063 C.ar    1  UNL1        0.1669
      4 N         144.4105  139.5449  161.3344 N.ar    1  UNL1       -0.1282
      5 N         144.0514  139.1099  159.9445 N.ar    1  UNL1       -0.1221
      6 C         143.1361  140.1432  159.3574 C.ar    1  UNL1        0.1932
      7 N         142.9296  141.2167  160.3844 N.ar    1  UNL1       -0.2884
      8 C         142.0840  142.4445  160.2187 C.3     1  UNL1        0.1340
      9 C         142.7694  138.9689  168.1503 C.3     1  UNL1        0.0521
     10 C         143.0264  139.6367  166.8320 C.ar    1  UNL1        0.0593
     11 C         142.9462  138.8436  165.5613 C.ar    1  UNL1        0.0147
     12 C         143.2032  139.5113  164.2429 C.ar    1  UNL1        0.0028
     13 C         143.5404  140.9722  164.1953 C.ar    1  UNL1        0.0206
     14 C         143.7974  141.6400  162.8769 C.ar    1  UNL1        0.0374
     15 C         144.1346  143.1009  162.8292 C.ar    1  UNL1        0.0031
     16 C         144.2148  143.8939  164.1000 C.ar    1  UNL1        0.0016
     17 C         143.9578  143.2261  165.4183 C.ar    1  UNL1        0.0191
     18 C         143.6206  141.7653  165.4660 C.ar    1  UNL1        0.0810
     19 N         143.3636  141.0975  166.7843 N.ar    1  UNL1       -0.2497
     20 C         140.1968  139.0237  158.3202 C.3     1  UNL1        0.0135
     21 C         139.1955  139.2626  159.4114 C.3     1  UNL1        0.0182
     22 C         139.1672  138.3651  160.6129 C.3     1  UNL1        0.0721
     23 N         139.3043  138.9482  161.9881 N.3     1  UNL1       -0.2721
     24 C         139.7624  140.3754  162.0471 C.3     1  UNL1        0.0768
     25 C         139.9946  141.2339  163.2550 C.3     1  UNL1        0.0433
     26 C         139.8259  140.8774  164.7021 C.ar    1  UNL1       -0.0250
     27 C         140.1659  142.0340  165.5948 C.ar    1  UNL1       -0.0070
     28 C         140.0634  141.8875  167.0841 C.ar    1  UNL1        0.0017
     29 C         139.6209  140.5844  167.6809 C.ar    1  UNL1        0.0509
     30 C         139.2809  139.4277  166.7882 C.ar    1  UNL1       -0.0003
     31 C         139.3834  139.5742  165.2990 C.ar    1  UNL1       -0.0246
     32 C         139.0003  138.3058  164.5959 C.3     1  UNL1        0.0433
     33 C         138.9651  138.0273  163.1224 C.3     1  UNL1        0.0768
     34 C         139.6146  140.7363  169.1731 C.2     1  UNL1        0.2490
     35 O         139.2361  139.6771  170.1656 O.2     1  UNL1       -0.2699
     36 N         140.0531  142.1333  169.4986 N.am    1  UNL1       -0.2702
     37 C         140.1902  142.7165  170.8738 C.3     1  UNL1        0.1155
     38 C         140.3305  142.8448  168.2075 C.3     1  UNL1        0.1206
@<TRIPOS>BOND
     1     9    10    1
     2    10    11   ar
     3    11    12   ar
     4    12    13   ar
     5    13    14   ar
     6    14     3    1
     7     3     4   ar
     8     4     5   ar
     9     5     6   ar
    10     6     2    1
    11     2     1    1
    12     1    20    1
    13    20    21    1
    14    21    22    1
    15    22    23    1
    16    23    24    1
    17    24    25    1
    18    25    26    1
    19    26    27   ar
    20    27    28   ar
    21    28    29   ar
    22    29    30   ar
    23    30    31   ar
    24    31    32    1
    25    32    33    1
    26    29    34    1
    27    34    35    2
    28    34    36   am
    29    36    37    1
    30    36    38    1
    31     6     7   ar
    32     7     8    1
    33    14    15   ar
    34    15    16   ar
    35    16    17   ar
    36    17    18   ar
    37    18    19   ar
    38    19    10   ar
    39    18    13   ar
    40     7     3   ar
    41    33    23    1
    42    31    26   ar
    43    38    28    1
@<TRIPOS>MOLECULE
*****
 38 43 0 0 0
SMALL
GASTEIGER

@<TRIPOS>ATOM
      1 C         141.2796  138.0588  158.2523 C.3     1  UNL1        0.0652
      2 S         139.9395  138.7136  158.4121 S.3     1  UNL1       -0.0757
      3 C         139.0726  140.7742  161.5852 C.ar    1  UNL1        0.1669
      4 N         138.6910  139.3916  162.0242 N.ar    1  UNL1       -0.1282
      5 N         138.9693  138.4514  160.8891 N.ar    1  UNL1       -0.1221
      6 C         139.5229  139.2529  159.7484 C.ar    1  UNL1        0.1932
      7 N         139.5868  140.6885  160.1786 N.ar    1  UNL1       -0.2884
      8 C         140.0784  141.8367  159.3481 C.3     1  UNL1        0.1340
      9 C         143.9162  144.8443  164.2729 C.3     1  UNL1        0.0521
     10 C         142.6771  144.1390  163.8067 C.ar    1  UNL1        0.0593
     11 C         142.7898  142.8899  162.9837 C.ar    1  UNL1        0.0147
     12 C         141.5508  142.1846  162.5175 C.ar    1  UNL1        0.0028
     13 C         140.1991  142.7284  162.8743 C.ar    1  UNL1        0.0206
     14 C         138.9599  142.0232  162.4081 C.ar    1  UNL1        0.0374
     15 C         137.6082  142.5669  162.7648 C.ar    1  UNL1        0.0031
     16 C         137.4957  143.8160  163.5877 C.ar    1  UNL1        0.0016
     17 C         138.7347  144.5213  164.0539 C.ar    1  UNL1        0.0191
     18 C         140.0864  143.9775  163.6972 C.ar    1  UNL1        0.0810
     19 N         141.3254  144.6828  164.1634 N.ar    1  UNL1       -0.2497
     20 C         142.4081  138.4269  159.1692 C.3     1  UNL1        0.0135
     21 C         142.9658  137.4082  160.1187 C.3     1  UNL1        0.0182
     22 C         143.9294  137.8285  161.1886 C.3     1  UNL1        0.0721
     23 N         143.4194  138.4476  162.4562 N.3     1  UNL1       -0.2721
     24 C         142.0163  138.0816  162.8405 C.3     1  UNL1        0.0768
     25 C         141.2272  138.5285  164.0355 C.3     1  UNL1        0.0433
     26 C         141.6462  139.4516  165.1409 C.ar    1  UNL1       -0.0250
     27 C         140.5487  139.6355  166.1468 C.ar    1  UNL1       -0.0070
     28 C         140.7628  140.5238  167.3364 C.ar    1  UNL1        0.0017
     29 C         142.0743  141.2281  167.5202 C.ar    1  UNL1        0.0509
     30 C         143.1719  141.0441  166.5144 C.ar    1  UNL1       -0.0003
     31 C         142.9578  140.1559  165.3248 C.ar    1  UNL1       -0.0246
     32 C         144.1743  140.1110  164.4484 C.3     1  UNL1        0.0433
     33 C         144.3797  139.3507  163.1717 C.3     1  UNL1        0.0768
     34 C         141.9946  142.0345  168.7825 C.2     1  UNL1        0.2490
     35 O         143.0844  142.8957  169.3489 O.2     1  UNL1       -0.2699
     36 N         140.6338  141.8286  169.3788 N.am    1  UNL1       -0.2702
     37 C         140.1237  142.4477  170.6464 C.3     1  UNL1        0.1155
     38 C         139.8725  140.8949  168.4851 C.3     1  UNL1        0.1206
@<TRIPOS>BOND
     1     9    10    1
     2    10    11   ar
     3    11    12   ar
     4    12    13   ar
     5    13    14   ar
     6    14     3    1
     7     3     4   ar
     8     4     5   ar
     9     5     6   ar
    10     6     2    1
    11     2     1    1
    12     1    20    1
    13    20    21    1
    14    21    22    1
    15    22    23    1
    16    23    24    1
    17    24    25    1
    18    25    26    1
    19    26    27   ar
    20    27    28   ar
    21    28    29   ar
    22    29    30   ar
    23    30    31   ar
    24    31    32    1
    25    32    33    1
    26    29    34    1
    27    34    35    2
    28    34    36   am
    29    36    37    1
    30    36    38    1
    31     6     7   ar
    32     7     8    1
    33    14    15   ar
    34    15    16   ar
    35    16    17   ar
    36    17    18   ar
    37    18    19   ar
    38    19    10   ar
    39    18    13   ar
    40     7     3   ar
    41    33    23    1
    42    31    26   ar
    43    38    28    1
@<TRIPOS>MOLECULE
*****
 38 43 0 0 0
SMALL
GASTEIGER

@<TRIPOS>ATOM
      1 C         142.3193  144.0918  157.7194 C.3     1  UNL1        0.0652
      2 S         140.9598  144.6685  157.9824 S.3     1  UNL1       -0.0757
      3 C         139.3087  143.6611  161.3477 C.ar    1  UNL1        0.1669
      4 N         138.3874  143.0025  160.3642 N.ar    1  UNL1       -0.1282
      5 N         138.8936  143.2996  158.9839 N.ar    1  UNL1       -0.1221
      6 C         140.1280  144.1419  159.1143 C.ar    1  UNL1        0.1932
      7 N         140.3845  144.3653  160.5752 N.ar    1  UNL1       -0.2884
      8 C         141.5178  145.1544  161.1608 C.3     1  UNL1        0.1340
      9 C         139.7501  138.4164  165.7690 C.3     1  UNL1        0.0521
     10 C         139.6069  139.7178  165.0371 C.ar    1  UNL1        0.0593
     11 C         139.7382  139.7566  163.5433 C.ar    1  UNL1        0.0147
     12 C         139.5950  141.0581  162.8114 C.ar    1  UNL1        0.0028
     13 C         139.3206  142.3208  163.5733 C.ar    1  UNL1        0.0206
     14 C         139.1774  143.6223  162.8414 C.ar    1  UNL1        0.0374
     15 C         138.9030  144.8850  163.6033 C.ar    1  UNL1        0.0031
     16 C         138.7718  144.8461  165.0970 C.ar    1  UNL1        0.0016
     17 C         138.9149  143.5446  165.8289 C.ar    1  UNL1        0.0191
     18 C         139.1894  142.2820  165.0671 C.ar    1  UNL1        0.0810
     19 N         139.3325  140.9805  165.7990 N.ar    1  UNL1       -0.2497
     20 C         142.6727  142.7332  158.2478 C.3     1  UNL1        0.0135
     21 C         143.7526  142.5870  159.2787 C.3     1  UNL1        0.0182
     22 C         143.8981  141.2998  160.0350 C.3     1  UNL1        0.0721
     23 N         143.6444  141.2655  161.5130 N.3     1  UNL1       -0.2721
     24 C         143.2435  142.5704  162.1349 C.3     1  UNL1        0.0768
     25 C         142.9244  142.8630  163.5711 C.3     1  UNL1        0.0433
     26 C         142.9273  141.9230  164.7400 C.ar    1  UNL1       -0.0250
     27 C         142.5462  142.6257  166.0093 C.ar    1  UNL1       -0.0070
     28 C         142.4880  141.8638  167.3000 C.ar    1  UNL1        0.0017
     29 C         142.8108  140.3990  167.3215 C.ar    1  UNL1        0.0509
     30 C         143.1919  139.6963  166.0522 C.ar    1  UNL1       -0.0003
     31 C         143.2501  140.4583  164.7615 C.ar    1  UNL1       -0.0246
     32 C         143.6497  139.5718  163.6194 C.3     1  UNL1        0.0433
     33 C         143.8252  139.9312  162.1736 C.3     1  UNL1        0.0768
     34 C         142.6693  139.9139  168.7338 C.2     1  UNL1        0.2490
     35 O         142.8979  138.5103  169.2109 O.2     1  UNL1       -0.2699
     36 N         142.2590  141.0787  169.5851 N.am    1  UNL1       -0.2702
     37 C         142.0053  141.0445  171.0631 C.3     1  UNL1        0.1155
     38 C         142.1470  142.2838  168.6990 C.3     1  UNL1        0.1206
@<TRIPOS>BOND
     1     9    10    1
     2    10    11   ar
     3    11    12   ar
     4    12    13   ar
     5    13    14   ar
     6    14     3    1
     7     3     4   ar
     8     4     5   ar
     9     5     6   ar
    10     6     2    1
    11     2     1    1
    12     1    20    1
    13    20    21    1
    14    21    22    1
    15    22    23    1
    16    23    24    1
    17    24    25    1
    18    25    26    1
    19    26    27   ar
    20    27    28   ar
    21    28    29   ar
    22    29    30   ar
    23    30    31   ar
    24    31    32    1
    25    32    33    1
    26    29    34    1
    27    34    35    2
    28    34    36   am
    29    36    37    1
    30    36    38    1
    31     6     7   ar
    32     7     8    1
    33    14    15   ar
    34    15    16   ar
    35    16    17   ar
    36    17    18   ar
    37    18    19   ar
    38    19    10   ar
    39    18    13   ar
    40     7     3   ar
    41    33    23    1
    42    31    26   ar
    43    38    28    1
@<TRIPOS>MOLECULE
*****
 38 43 0 0 0
SMALL
GASTEIGER

@<TRIPOS>ATOM
      1 C         137.7905  141.2279  158.5661 C.3     1  UNL1        0.0652
      2 S         138.7388  142.3872  158.6474 S.3     1  UNL1       -0.0757
      3 C         140.5738  143.5319  161.8706 C.ar    1  UNL1        0.1669
      4 N         139.1506  143.8550  162.2170 N.ar    1  UNL1       -0.1282
      5 N         138.2899  143.4656  161.0519 N.ar    1  UNL1       -0.1221
      6 C         139.1813  142.9018  159.9852 C.ar    1  UNL1        0.1932
      7 N         140.5928  142.9427  160.4912 N.ar    1  UNL1       -0.2884
      8 C         141.8096  142.4764  159.7484 C.3     1  UNL1        0.1340
      9 C         144.9573  139.0816  164.7394 C.3     1  UNL1        0.0521
     10 C         144.1600  140.2508  164.2418 C.ar    1  UNL1        0.0593
     11 C         142.9654  140.0245  163.3632 C.ar    1  UNL1        0.0147
     12 C         142.1682  141.1936  162.8656 C.ar    1  UNL1        0.0028
     13 C         142.5655  142.5890  163.2466 C.ar    1  UNL1        0.0206
     14 C         141.7683  143.7582  162.7491 C.ar    1  UNL1        0.0374
     15 C         142.1656  145.1535  163.1301 C.ar    1  UNL1        0.0031
     16 C         143.3602  145.3797  164.0086 C.ar    1  UNL1        0.0016
     17 C         144.1575  144.2106  164.5062 C.ar    1  UNL1        0.0191
     18 C         143.7601  142.8152  164.1252 C.ar    1  UNL1        0.0810
     19 N         144.5574  141.6461  164.6228 N.ar    1  UNL1       -0.2497
     20 C         138.0738  139.9719  159.3357 C.3     1  UNL1        0.0135
     21 C         137.2139  139.6001  160.5072 C.3     1  UNL1        0.0182
     22 C         137.7301  138.6466  161.5437 C.3     1  UNL1        0.0721
     23 N         138.3888  139.1721  162.7846 N.3     1  UNL1       -0.2721
     24 C         138.0418  140.5830  163.1578 C.3     1  UNL1        0.0768
     25 C         138.5278  141.3876  164.3269 C.3     1  UNL1        0.0433
     26 C         139.4806  140.9801  165.4112 C.ar    1  UNL1       -0.0250
     27 C         139.6999  142.0917  166.3943 C.ar    1  UNL1       -0.0070
     28 C         140.6215  141.8905  167.5606 C.ar    1  UNL1        0.0017
     29 C         141.3238  140.5778  167.7439 C.ar    1  UNL1        0.0509
     30 C         141.1044  139.4662  166.7609 C.ar    1  UNL1       -0.0003
     31 C         140.1829  139.6673  165.5946 C.ar    1  UNL1       -0.0246
     32 C         140.1057  138.4379  164.7387 C.3     1  UNL1        0.0433
     33 C         139.3072  138.2176  163.4881 C.3     1  UNL1        0.0768
     34 C         142.1672  140.6720  168.9807 C.2     1  UNL1        0.2490
     35 O         143.0387  139.5859  169.5385 O.2     1  UNL1       -0.2699
     36 N         141.9863  142.0430  169.5618 N.am    1  UNL1       -0.2702
     37 C         142.6450  142.5687  170.8027 C.3     1  UNL1        0.1155
     38 C         141.0310  142.7960  168.6841 C.3     1  UNL1        0.1206
@<TRIPOS>BOND
     1     9    10    1
     2    10    11   ar
     3    11    12   ar
     4    12    13   ar
     5    13    14   ar
     6    14     3    1
     7     3     4   ar
     8     4     5   ar
     9     5     6   ar
    10     6     2    1
    11     2     1    1
    12     1    20    1
    13    20    21    1
    14    21    22    1
    15    22    23    1
    16    23    24    1
    17    24    25    1
    18    25    26    1
    19    26    27   ar
    20    27    28   ar
    21    28    29   ar
    22    29    30   ar
    23    30    31   ar
    24    31    32    1
    25    32    33    1
    26    29    34    1
    27    34    35    2
    28    34    36   am
    29    36    37    1
    30    36    38    1
    31     6     7   ar
    32     7     8    1
    33    14    15   ar
    34    15    16   ar
    35    16    17   ar
    36    17    18   ar
    37    18    19   ar
    38    19    10   ar
    39    18    13   ar
    40     7     3   ar
    41    33    23    1
    42    31    26   ar
    43    38    28    1
@<TRIPOS>MOLECULE
*****
 38 43 0 0 0
SMALL
GASTEIGER

@<TRIPOS>ATOM
      1 C         139.7218  141.1311  156.9974 C.3     1  UNL1        0.0652
      2 S         139.0027  142.4267  157.2307 S.3     1  UNL1       -0.0757
      3 C         139.4693  143.9312  160.7782 C.ar    1  UNL1        0.1669
      4 N         140.0212  145.0319  159.9217 N.ar    1  UNL1       -0.1282
      5 N         139.9136  144.6024  158.4885 N.ar    1  UNL1       -0.1221
      6 C         139.2952  143.2361  158.4593 C.ar    1  UNL1        0.1932
      7 N         139.0205  142.8213  159.8744 N.ar    1  UNL1       -0.2884
      8 C         138.4052  141.5243  160.3094 C.3     1  UNL1        0.1340
      9 C         144.3283  143.1364  165.5749 C.3     1  UNL1        0.0521
     10 C         143.0916  143.3370  164.7501 C.ar    1  UNL1        0.0593
     11 C         143.1794  143.3293  163.2526 C.ar    1  UNL1        0.0147
     12 C         141.9427  143.5300  162.4278 C.ar    1  UNL1        0.0028
     13 C         140.6182  143.7382  163.1004 C.ar    1  UNL1        0.0206
     14 C         139.3814  143.9389  162.2756 C.ar    1  UNL1        0.0374
     15 C         138.0570  144.1472  162.9482 C.ar    1  UNL1        0.0031
     16 C         137.9693  144.1548  164.4456 C.ar    1  UNL1        0.0016
     17 C         139.2060  143.9542  165.2704 C.ar    1  UNL1        0.0191
     18 C         140.5304  143.7459  164.5978 C.ar    1  UNL1        0.0810
     19 N         141.7671  143.5453  165.4227 N.ar    1  UNL1       -0.2497
     20 C         138.9685  139.8352  157.0509 C.3     1  UNL1        0.0135
     21 C         139.7065  138.5470  157.2660 C.3     1  UNL1        0.0182
     22 C         140.8603  138.4945  158.2231 C.3     1  UNL1        0.0721
     23 N         140.6297  138.7158  159.6886 N.3     1  UNL1       -0.2721
     24 C         141.6456  139.5719  160.3852 C.3     1  UNL1        0.0768
     25 C         141.6964  139.9754  161.8291 C.3     1  UNL1        0.0433
     26 C         140.7441  139.6224  162.9328 C.ar    1  UNL1       -0.0250
     27 C         141.1637  140.2359  164.2358 C.ar    1  UNL1       -0.0070
     28 C         140.3449  140.0057  165.4713 C.ar    1  UNL1        0.0017
     29 C         139.1064  139.1621  165.4040 C.ar    1  UNL1        0.0509
     30 C         138.6868  138.5486  164.1010 C.ar    1  UNL1       -0.0003
     31 C         139.5056  138.7788  162.8655 C.ar    1  UNL1       -0.0246
     32 C         138.9137  138.0798  161.6777 C.3     1  UNL1        0.0433
     33 C         139.4140  138.0518  160.2638 C.3     1  UNL1        0.0768
     34 C         138.5046  139.1118  166.7770 C.2     1  UNL1        0.2490
     35 O         137.2555  138.3778  167.1658 O.2     1  UNL1       -0.2699
     36 N         139.3710  139.9244  167.6929 N.am    1  UNL1       -0.2702
     37 C         139.1405  140.1457  169.1585 C.3     1  UNL1        0.1155
     38 C         140.5084  140.4768  166.8860 C.3     1  UNL1        0.1206
@<TRIPOS>BOND
     1     9    10    1
     2    10    11   ar
     3    11    12   ar
     4    12    13   ar
     5    13    14   ar
     6    14     3    1
     7     3     4   ar
     8     4     5   ar
     9     5     6   ar
    10     6     2    1
    11     2     1    1
    12     1    20    1
    13    20    21    1
    14    21    22    1
    15    22    23    1
    16    23    24    1
    17    24    25    1
    18    25    26    1
    19    26    27   ar
    20    27    28   ar
    21    28    29   ar
    22    29    30   ar
    23    30    31   ar
    24    31    32    1
    25    32    33    1
    26    29    34    1
    27    34    35    2
    28    34    36   am
    29    36    37    1
    30    36    38    1
    31     6     7   ar
    32     7     8    1
    33    14    15   ar
    34    15    16   ar
    35    16    17   ar
    36    17    18   ar
    37    18    19   ar
    38    19    10   ar
    39    18    13   ar
    40     7     3   ar
    41    33    23    1
    42    31    26   ar
    43    38    28    1
@<TRIPOS>MOLECULE
*****
 38 43 0 0 0
SMALL
GASTEIGER

@<TRIPOS>ATOM
      1 C         142.8559  138.7239  157.6888 C.3     1  UNL1        0.0652
      2 S         141.4919  138.1009  157.6516 S.3     1  UNL1       -0.0757
      3 C         139.3695  138.8837  160.8057 C.ar    1  UNL1        0.1669
      4 N         138.4064  139.2401  159.7125 N.ar    1  UNL1       -0.1282
      5 N         139.0841  138.9903  158.3979 N.ar    1  UNL1       -0.1221
      6 C         140.4662  138.4794  158.6786 C.ar    1  UNL1        0.1932
      7 N         140.6426  138.4135  160.1668 N.ar    1  UNL1       -0.2884
      8 C         141.8756  137.9576  160.8891 C.3     1  UNL1        0.1340
      9 C         137.8756  144.3014  164.7637 C.3     1  UNL1        0.0521
     10 C         138.1832  142.9712  164.1426 C.ar    1  UNL1        0.0593
     11 C         138.4467  142.8745  162.6691 C.ar    1  UNL1        0.0147
     12 C         138.7543  141.5442  162.0479 C.ar    1  UNL1        0.0028
     13 C         138.7984  140.3107  162.9003 C.ar    1  UNL1        0.0206
     14 C         139.1060  138.9804  162.2792 C.ar    1  UNL1        0.0374
     15 C         139.1500  137.7469  163.1315 C.ar    1  UNL1        0.0031
     16 C         138.8865  137.8437  164.6050 C.ar    1  UNL1        0.0016
     17 C         138.5789  139.1739  165.2262 C.ar    1  UNL1        0.0191
     18 C         138.5348  140.4074  164.3738 C.ar    1  UNL1        0.0810
     19 N         138.2272  141.7377  164.9950 N.ar    1  UNL1       -0.2497
     20 C         143.0147  140.1571  158.1018 C.3     1  UNL1        0.0135
     21 C         143.9654  140.5191  159.2042 C.3     1  UNL1        0.0182
     22 C         143.7198  141.7441  160.0342 C.3     1  UNL1        0.0721
     23 N         143.3693  141.6082  161.4864 N.3     1  UNL1       -0.2721
     24 C         142.4803  142.6800  162.0442 C.3     1  UNL1        0.0768
     25 C         141.9565  142.8268  163.4422 C.3     1  UNL1        0.0433
     26 C         142.1923  141.9382  164.6273 C.ar    1  UNL1       -0.0250
     27 C         141.4797  142.4481  165.8449 C.ar    1  UNL1       -0.0070
     28 C         141.5850  141.7030  167.1425 C.ar    1  UNL1        0.0017
     29 C         142.4027  140.4481  167.2226 C.ar    1  UNL1        0.0509
     30 C         143.1153  139.9382  166.0051 C.ar    1  UNL1       -0.0003
     31 C         143.0100  140.6833  164.7075 C.ar    1  UNL1       -0.0246
     32 C         143.7940  140.0070  163.6221 C.3     1  UNL1        0.0433
     33 C         143.9539  140.4187  162.1886 C.3     1  UNL1        0.0768
     34 C         142.3220  139.9311  168.6284 C.2     1  UNL1        0.2490
     35 O         142.9914  138.6956  169.1533 O.2     1  UNL1       -0.2699
     36 N         141.4544  140.8665  169.4171 N.am    1  UNL1       -0.2702
     37 C         141.1037  140.7308  170.8692 C.3     1  UNL1        0.1155
     38 C         140.9989  141.9616  168.4988 C.3     1  UNL1        0.1206
@<TRIPOS>BOND
     1     9    10    1
     2    10    11   ar
     3    11    12   ar
     4    12    13   ar
     5    13    14   ar
     6    14     3    1
     7     3     4   ar
     8     4     5   ar
     9     5     6   ar
    10     6     2    1
    11     2     1    1
    12     1    20    1
    13    20    21    1
    14    21    22    1
    15    22    23    1
    16    23    24    1
    17    24    25    1
    18    25    26    1
    19    26    27   ar
    20    27    28   ar
    21    28    29   ar
    22    29    30   ar
    23    30    31   ar
    24    31    32    1
    25    32    33    1
    26    29    34    1
    27    34    35    2
    28    34    36   am
    29    36    37    1
    30    36    38    1
    31     6     7   ar
    32     7     8    1
    33    14    15   ar
    34    15    16   ar
    35    16    17   ar
    36    17    18   ar
    37    18    19   ar
    38    19    10   ar
    39    18    13   ar
    40     7     3   ar
    41    33    23    1
    42    31    26   ar
    43    38    28    1
