@<TRIPOS>MOLECULE
*****
 29 32 0 0 0
SMALL
GASTEIGER

@<TRIPOS>ATOM
      1 N         141.7983  141.2407  162.4478 N.pl3   1  UNL1       -0.2090
      2 N         142.0667  140.9702  163.8985 N.2     1  UNL1       -0.1821
      3 C         141.7144  142.2053  164.6734 C.2     1  UNL1        0.0785
      4 C         141.2282  143.2392  163.7014 C.3     1  UNL1        0.0737
      5 C         141.2801  142.6431  162.3260 C.3     1  UNL1        0.1244
      6 C         140.8833  143.3289  161.0523 C.ar    1  UNL1       -0.0019
      7 C         139.7675  142.7736  160.2175 C.ar    1  UNL1       -0.0003
      8 C         139.3708  143.4594  158.9439 C.ar    1  UNL1        0.0294
      9 C         140.0898  144.7005  158.5049 C.ar    1  UNL1        0.1401
     10 F         139.6931  145.3864  157.2312 F       1  UNL1       -0.2042
     11 C         141.2055  145.2558  159.3396 C.ar    1  UNL1        0.0294
     12 C         141.6023  144.5699  160.6133 C.ar    1  UNL1       -0.0003
     13 C         142.4358  138.3525  159.0564 C.ar    1  UNL1        0.0685
     14 C         143.5411  139.2776  159.4714 C.ar    1  UNL1        0.0116
     15 C         143.3286  140.2404  160.6019 C.ar    1  UNL1        0.0170
     16 C         142.0108  140.2780  161.3173 C.ar    1  UNL1        0.0694
     17 C         140.9055  139.3528  160.9023 C.ar    1  UNL1        0.0170
     18 C         141.1180  138.3901  159.7718 C.ar    1  UNL1        0.0116
     19 N         142.8608  136.4270  156.7954 N.1     1  UNL1       -0.1908
     20 C         142.6483  137.3897  157.9259 C.1     1  UNL1        0.1004
     21 C         141.8282  142.3764  166.1592 C.ar    1  UNL1        0.0151
     22 C         140.6116  142.7084  166.9713 C.ar    1  UNL1        0.0013
     23 C         140.7254  142.8795  168.4572 C.ar    1  UNL1        0.0012
     24 C         142.0559  142.7187  169.1308 C.ar    1  UNL1        0.0140
     25 C         143.2725  142.3867  168.3187 C.ar    1  UNL1        0.0012
     26 C         143.1587  142.2156  166.8330 C.ar    1  UNL1        0.0013
     27 C         142.1697  142.8898  170.6168 C.2     1  UNL1        0.0729
     28 O         143.1639  143.8580  171.1862 O.co2   1  UNL1       -0.5446
     29 O         141.2893  142.0928  171.5331 O.co2   1  UNL1       -0.5446
@<TRIPOS>UNITY_ATOM_ATTR
28 1
charge -1
@<TRIPOS>BOND
     1    19    20    3
     2    20    13    1
     3    13    14   ar
     4    14    15   ar
     5    15    16   ar
     6    16     1    1
     7     1     2    1
     8     2     3    2
     9     3    21    1
    10    21    22   ar
    11    22    23   ar
    12    23    24   ar
    13    24    27    1
    14    27    28   ar
    15    27    29   ar
    16    24    25   ar
    17    25    26   ar
    18     3     4    1
    19     4     5    1
    20     5     6    1
    21     6     7   ar
    22     7     8   ar
    23     8     9   ar
    24     9    10    1
    25     9    11   ar
    26    11    12   ar
    27    16    17   ar
    28    17    18   ar
    29    18    13   ar
    30     5     1    1
    31    12     6   ar
    32    26    21   ar
@<TRIPOS>MOLECULE
*****
 29 32 0 0 0
SMALL
GASTEIGER

@<TRIPOS>ATOM
      1 N         140.4468  142.2067  164.6644 N.pl3   1  UNL1       -0.2090
      2 N         140.7597  143.2349  163.6180 N.2     1  UNL1       -0.1821
      3 C         140.1783  142.7647  162.3176 C.2     1  UNL1        0.0785
      4 C         139.5062  141.4458  162.5603 C.3     1  UNL1        0.0737
      5 C         139.6721  141.1010  164.0107 C.3     1  UNL1        0.1244
      6 C         139.1543  139.8671  164.6884 C.ar    1  UNL1       -0.0019
      7 C         139.4537  138.5141  164.1139 C.ar    1  UNL1       -0.0003
      8 C         138.9358  137.2802  164.7915 C.ar    1  UNL1        0.0294
      9 C         138.1185  137.3991  166.0437 C.ar    1  UNL1        0.1401
     10 F         137.6007  136.1652  166.7213 F       1  UNL1       -0.2042
     11 C         137.8191  138.7520  166.6181 C.ar    1  UNL1        0.0294
     12 C         138.3370  139.9860  165.9404 C.ar    1  UNL1       -0.0003
     13 C         141.6254  142.4044  169.0028 C.ar    1  UNL1        0.0685
     14 C         142.4067  141.5472  168.0516 C.ar    1  UNL1        0.0116
     15 C         142.0139  141.4813  166.6055 C.ar    1  UNL1        0.0170
     16 C         140.8397  142.2726  166.1105 C.ar    1  UNL1        0.0694
     17 C         140.0583  143.1298  167.0616 C.ar    1  UNL1        0.0170
     18 C         140.4512  143.1957  168.5078 C.ar    1  UNL1        0.0116
     19 N         142.4111  142.5362  171.8951 N.1     1  UNL1       -0.1908
     20 C         142.0183  142.4703  170.4489 C.1     1  UNL1        0.1004
     21 C         140.2556  143.4866  161.0050 C.ar    1  UNL1        0.0151
     22 C         141.0630  144.7453  160.8878 C.ar    1  UNL1        0.0013
     23 C         141.1402  145.4672  159.5752 C.ar    1  UNL1        0.0012
     24 C         140.4102  144.9304  158.3799 C.ar    1  UNL1        0.0140
     25 C         139.6028  143.6716  158.4972 C.ar    1  UNL1        0.0012
     26 C         139.5255  142.9497  159.8097 C.ar    1  UNL1        0.0013
     27 C         140.4875  145.6523  157.0673 C.2     1  UNL1        0.0729
     28 O         141.4293  145.1737  156.0024 O.co2   1  UNL1       -0.5446
     29 O         139.6230  146.8529  156.8196 O.co2   1  UNL1       -0.5446
@<TRIPOS>UNITY_ATOM_ATTR
28 1
charge -1
@<TRIPOS>BOND
     1    19    20    3
     2    20    13    1
     3    13    14   ar
     4    14    15   ar
     5    15    16   ar
     6    16     1    1
     7     1     2    1
     8     2     3    2
     9     3    21    1
    10    21    22   ar
    11    22    23   ar
    12    23    24   ar
    13    24    27    1
    14    27    28   ar
    15    27    29   ar
    16    24    25   ar
    17    25    26   ar
    18     3     4    1
    19     4     5    1
    20     5     6    1
    21     6     7   ar
    22     7     8   ar
    23     8     9   ar
    24     9    10    1
    25     9    11   ar
    26    11    12   ar
    27    16    17   ar
    28    17    18   ar
    29    18    13   ar
    30     5     1    1
    31    12     6   ar
    32    26    21   ar
@<TRIPOS>MOLECULE
*****
 29 32 0 0 0
SMALL
GASTEIGER

@<TRIPOS>ATOM
      1 N         140.3603  140.8939  162.3864 N.pl3   1  UNL1       -0.2090
      2 N         140.1983  140.3249  163.7648 N.2     1  UNL1       -0.1821
      3 C         140.4053  141.4351  164.7519 C.2     1  UNL1        0.0785
      4 C         140.6953  142.6904  163.9836 C.3     1  UNL1        0.0737
      5 C         140.6675  142.3558  162.5217 C.3     1  UNL1        0.1244
      6 C         140.9051  143.3149  161.3931 C.ar    1  UNL1       -0.0019
      7 C         141.9631  143.0226  160.3706 C.ar    1  UNL1       -0.0003
      8 C         142.2007  143.9817  159.2420 C.ar    1  UNL1        0.0294
      9 C         141.3805  145.2330  159.1359 C.ar    1  UNL1        0.1401
     10 F         141.6181  146.1921  158.0073 F       1  UNL1       -0.2042
     11 C         140.3226  145.5253  160.1583 C.ar    1  UNL1        0.0294
     12 C         140.0850  144.5662  161.2869 C.ar    1  UNL1       -0.0003
     13 C         139.9897  138.6151  158.5238 C.ar    1  UNL1        0.0685
     14 C         141.2145  138.4546  159.3748 C.ar    1  UNL1        0.0116
     15 C         141.3380  139.2141  160.6623 C.ar    1  UNL1        0.0170
     16 C         140.2368  140.1343  161.0989 C.ar    1  UNL1        0.0694
     17 C         139.0120  140.2949  160.2479 C.ar    1  UNL1        0.0170
     18 C         138.8885  139.5353  158.9603 C.ar    1  UNL1        0.0116
     19 N         139.7427  137.0960  155.9487 N.1     1  UNL1       -0.1908
     20 C         139.8662  137.8556  157.2362 C.1     1  UNL1        0.1004
     21 C         140.3348  141.3118  166.2452 C.ar    1  UNL1        0.0151
     22 C         139.7738  140.0686  166.8694 C.ar    1  UNL1        0.0013
     23 C         139.7032  139.9453  168.3626 C.ar    1  UNL1        0.0012
     24 C         140.1937  141.0651  169.2316 C.ar    1  UNL1        0.0140
     25 C         140.7547  142.3083  168.6074 C.ar    1  UNL1        0.0012
     26 C         140.8253  142.4317  167.1143 C.ar    1  UNL1        0.0013
     27 C         140.1231  140.9417  170.7249 C.2     1  UNL1        0.0729
     28 O         139.6649  139.6577  171.3506 O.co2   1  UNL1       -0.5446
     29 O         140.5107  142.1023  171.5926 O.co2   1  UNL1       -0.5446
@<TRIPOS>UNITY_ATOM_ATTR
28 1
charge -1
@<TRIPOS>BOND
     1    19    20    3
     2    20    13    1
     3    13    14   ar
     4    14    15   ar
     5    15    16   ar
     6    16     1    1
     7     1     2    1
     8     2     3    2
     9     3    21    1
    10    21    22   ar
    11    22    23   ar
    12    23    24   ar
    13    24    27    1
    14    27    28   ar
    15    27    29   ar
    16    24    25   ar
    17    25    26   ar
    18     3     4    1
    19     4     5    1
    20     5     6    1
    21     6     7   ar
    22     7     8   ar
    23     8     9   ar
    24     9    10    1
    25     9    11   ar
    26    11    12   ar
    27    16    17   ar
    28    17    18   ar
    29    18    13   ar
    30     5     1    1
    31    12     6   ar
    32    26    21   ar
@<TRIPOS>MOLECULE
*****
 29 32 0 0 0
SMALL
GASTEIGER

@<TRIPOS>ATOM
      1 N         140.7117  142.2921  162.2389 N.pl3   1  UNL1       -0.2090
      2 N         140.3513  142.6465  163.6512 N.2     1  UNL1       -0.1821
      3 C         140.6670  141.4655  164.5205 C.2     1  UNL1        0.0785
      4 C         141.2226  140.3812  163.6455 C.3     1  UNL1        0.0737
      5 C         141.2502  140.8921  162.2354 C.3     1  UNL1        0.1244
      6 C         141.7318  140.1357  161.0329 C.ar    1  UNL1       -0.0019
      7 C         140.8153  139.1755  160.3342 C.ar    1  UNL1       -0.0003
      8 C         141.2969  138.4191  159.1317 C.ar    1  UNL1        0.0294
      9 C         142.6950  138.6228  158.6280 C.ar    1  UNL1        0.1401
     10 F         143.1766  137.8664  157.4255 F       1  UNL1       -0.2042
     11 C         143.6115  139.5829  159.3267 C.ar    1  UNL1        0.0294
     12 C         143.1299  140.3393  160.5292 C.ar    1  UNL1       -0.0003
     13 C         140.2573  144.9603  158.6439 C.ar    1  UNL1        0.0685
     14 C         139.5158  143.6582  158.7100 C.ar    1  UNL1        0.0116
     15 C         139.6672  142.7688  159.9083 C.ar    1  UNL1        0.0170
     16 C         140.5603  143.1815  161.0406 C.ar    1  UNL1        0.0694
     17 C         141.3018  144.4837  160.9745 C.ar    1  UNL1        0.0170
     18 C         141.1504  145.3731  159.7762 C.ar    1  UNL1        0.0116
     19 N         139.9544  146.7392  156.2472 N.1     1  UNL1       -0.1908
     20 C         140.1059  145.8497  157.4456 C.1     1  UNL1        0.1004
     21 C         140.4629  141.3834  166.0043 C.ar    1  UNL1        0.0151
     22 C         139.8138  140.1724  166.6061 C.ar    1  UNL1        0.0013
     23 C         139.6097  140.0902  168.0898 C.ar    1  UNL1        0.0012
     24 C         140.0548  141.2189  168.9717 C.ar    1  UNL1        0.0140
     25 C         140.7040  142.4298  168.3699 C.ar    1  UNL1        0.0012
     26 C         140.9081  142.5121  166.8862 C.ar    1  UNL1        0.0013
     27 C         139.8507  141.1367  170.4556 C.2     1  UNL1        0.0729
     28 O         139.4883  139.8273  171.0913 O.co2   1  UNL1       -0.5446
     29 O         140.0091  142.3638  171.3036 O.co2   1  UNL1       -0.5446
@<TRIPOS>UNITY_ATOM_ATTR
28 1
charge -1
@<TRIPOS>BOND
     1    19    20    3
     2    20    13    1
     3    13    14   ar
     4    14    15   ar
     5    15    16   ar
     6    16     1    1
     7     1     2    1
     8     2     3    2
     9     3    21    1
    10    21    22   ar
    11    22    23   ar
    12    23    24   ar
    13    24    27    1
    14    27    28   ar
    15    27    29   ar
    16    24    25   ar
    17    25    26   ar
    18     3     4    1
    19     4     5    1
    20     5     6    1
    21     6     7   ar
    22     7     8   ar
    23     8     9   ar
    24     9    10    1
    25     9    11   ar
    26    11    12   ar
    27    16    17   ar
    28    17    18   ar
    29    18    13   ar
    30     5     1    1
    31    12     6   ar
    32    26    21   ar
@<TRIPOS>MOLECULE
*****
 29 32 0 0 0
SMALL
GASTEIGER

@<TRIPOS>ATOM
      1 N         140.4631  140.9109  162.2418 N.pl3   1  UNL1       -0.2090
      2 N         140.2795  140.3588  163.6243 N.2     1  UNL1       -0.1821
      3 C         140.4161  141.4918  164.5978 C.2     1  UNL1        0.0785
      4 C         140.6841  142.7441  163.8169 C.3     1  UNL1        0.0737
      5 C         140.7132  142.3851  162.3608 C.3     1  UNL1        0.1244
      6 C         140.9506  143.3338  161.2234 C.ar    1  UNL1       -0.0019
      7 C         140.0961  144.5579  161.0769 C.ar    1  UNL1       -0.0003
      8 C         140.3336  145.5066  159.9395 C.ar    1  UNL1        0.0294
      9 C         141.4255  145.2312  158.9487 C.ar    1  UNL1        0.1401
     10 F         141.6629  146.1799  157.8113 F       1  UNL1       -0.2042
     11 C         142.2799  144.0071  159.0952 C.ar    1  UNL1        0.0294
     12 C         142.0425  143.0584  160.2326 C.ar    1  UNL1       -0.0003
     13 C         140.2935  138.5577  158.4098 C.ar    1  UNL1        0.0685
     14 C         139.1266  139.4054  158.8217 C.ar    1  UNL1        0.0116
     15 C         139.1831  140.1898  160.0990 C.ar    1  UNL1        0.0170
     16 C         140.4065  140.1265  160.9645 C.ar    1  UNL1        0.0694
     17 C         141.5734  139.2788  160.5526 C.ar    1  UNL1        0.0170
     18 C         141.5169  138.4944  159.2753 C.ar    1  UNL1        0.0116
     19 N         140.1804  136.9889  155.8552 N.1     1  UNL1       -0.1908
     20 C         140.2369  137.7733  157.1325 C.1     1  UNL1        0.1004
     21 C         140.3042  141.3903  166.0902 C.ar    1  UNL1        0.0151
     22 C         140.8456  142.4865  166.9592 C.ar    1  UNL1        0.0013
     23 C         140.7338  142.3850  168.4515 C.ar    1  UNL1        0.0012
     24 C         140.0806  141.1873  169.0749 C.ar    1  UNL1        0.0140
     25 C         139.5393  140.0910  168.2060 C.ar    1  UNL1        0.0012
     26 C         139.6510  140.1925  166.7136 C.ar    1  UNL1        0.0013
     27 C         139.9688  141.0858  170.5674 C.2     1  UNL1        0.0729
     28 O         140.2232  142.2918  171.4222 O.co2   1  UNL1       -0.5446
     29 O         139.6028  139.7783  171.2048 O.co2   1  UNL1       -0.5446
@<TRIPOS>UNITY_ATOM_ATTR
28 1
charge -1
@<TRIPOS>BOND
     1    19    20    3
     2    20    13    1
     3    13    14   ar
     4    14    15   ar
     5    15    16   ar
     6    16     1    1
     7     1     2    1
     8     2     3    2
     9     3    21    1
    10    21    22   ar
    11    22    23   ar
    12    23    24   ar
    13    24    27    1
    14    27    28   ar
    15    27    29   ar
    16    24    25   ar
    17    25    26   ar
    18     3     4    1
    19     4     5    1
    20     5     6    1
    21     6     7   ar
    22     7     8   ar
    23     8     9   ar
    24     9    10    1
    25     9    11   ar
    26    11    12   ar
    27    16    17   ar
    28    17    18   ar
    29    18    13   ar
    30     5     1    1
    31    12     6   ar
    32    26    21   ar
@<TRIPOS>MOLECULE
*****
 29 32 0 0 0
SMALL
GASTEIGER

@<TRIPOS>ATOM
      1 N         142.1600  141.7122  162.2476 N.pl3   1  UNL1       -0.2090
      2 N         142.7390  141.9634  163.6083 N.2     1  UNL1       -0.1821
      3 C         141.6092  141.9940  164.5945 C.2     1  UNL1        0.0785
      4 C         140.3318  141.7617  163.8432 C.3     1  UNL1        0.0737
      5 C         140.6722  141.5875  162.3928 C.3     1  UNL1        0.1244
      6 C         139.6962  141.3333  161.2825 C.ar    1  UNL1       -0.0019
      7 C         138.9896  140.0131  161.1926 C.ar    1  UNL1       -0.0003
      8 C         138.0136  139.7589  160.0823 C.ar    1  UNL1        0.0294
      9 C         137.7441  140.8249  159.0619 C.ar    1  UNL1        0.1401
     10 F         136.7681  140.5707  157.9516 F       1  UNL1       -0.2042
     11 C         138.4506  142.1450  159.1518 C.ar    1  UNL1        0.0294
     12 C         139.4267  142.3991  160.2621 C.ar    1  UNL1       -0.0003
     13 C         144.4788  141.3892  158.4046 C.ar    1  UNL1        0.0685
     14 C         144.2971  142.7257  159.0608 C.ar    1  UNL1        0.0116
     15 C         143.5242  142.8333  160.3418 C.ar    1  UNL1        0.0170
     16 C         142.9329  141.6045  160.9666 C.ar    1  UNL1        0.0694
     17 C         143.1146  140.2680  160.3103 C.ar    1  UNL1        0.0170
     18 C         143.8875  140.1604  159.0293 C.ar    1  UNL1        0.0116
     19 N         146.0247  141.1739  155.8426 N.1     1  UNL1       -0.1908
     20 C         145.2517  141.2815  157.1236 C.1     1  UNL1        0.1004
     21 C         141.7347  142.2176  166.0724 C.ar    1  UNL1        0.0151
     22 C         143.0659  142.0573  166.7447 C.ar    1  UNL1        0.0013
     23 C         143.1915  142.2809  168.2226 C.ar    1  UNL1        0.0012
     24 C         141.9858  142.6649  169.0281 C.ar    1  UNL1        0.0140
     25 C         140.6546  142.8252  168.3558 C.ar    1  UNL1        0.0012
     26 C         140.5290  142.6016  166.8779 C.ar    1  UNL1        0.0013
     27 C         142.1114  142.8885  170.5061 C.2     1  UNL1        0.0729
     28 O         141.2183  142.1462  171.4555 O.co2   1  UNL1       -0.5446
     29 O         143.1301  143.8544  171.0346 O.co2   1  UNL1       -0.5446
@<TRIPOS>UNITY_ATOM_ATTR
28 1
charge -1
@<TRIPOS>BOND
     1    19    20    3
     2    20    13    1
     3    13    14   ar
     4    14    15   ar
     5    15    16   ar
     6    16     1    1
     7     1     2    1
     8     2     3    2
     9     3    21    1
    10    21    22   ar
    11    22    23   ar
    12    23    24   ar
    13    24    27    1
    14    27    28   ar
    15    27    29   ar
    16    24    25   ar
    17    25    26   ar
    18     3     4    1
    19     4     5    1
    20     5     6    1
    21     6     7   ar
    22     7     8   ar
    23     8     9   ar
    24     9    10    1
    25     9    11   ar
    26    11    12   ar
    27    16    17   ar
    28    17    18   ar
    29    18    13   ar
    30     5     1    1
    31    12     6   ar
    32    26    21   ar
@<TRIPOS>MOLECULE
*****
 29 32 0 0 0
SMALL
GASTEIGER

@<TRIPOS>ATOM
      1 N         140.9682  139.8676  162.7050 N.pl3   1  UNL1       -0.2090
      2 N         140.6315  138.8341  161.6713 N.2     1  UNL1       -0.1821
      3 C         141.3014  139.2268  160.3879 C.2     1  UNL1        0.0785
      4 C         142.0520  140.5030  160.6284 C.3     1  UNL1        0.0737
      5 C         141.8461  140.8990  162.0605 C.3     1  UNL1        0.1244
      6 C         142.4177  142.1133  162.7303 C.ar    1  UNL1       -0.0019
      7 C         143.8374  142.1043  163.2147 C.ar    1  UNL1       -0.0003
      8 C         144.4091  143.3186  163.8846 C.ar    1  UNL1        0.0294
      9 C         143.5611  144.5419  164.0701 C.ar    1  UNL1        0.1401
     10 F         144.1327  145.7562  164.7400 F       1  UNL1       -0.2042
     11 C         142.1415  144.5509  163.5858 C.ar    1  UNL1        0.0294
     12 C         141.5698  143.3366  162.9159 C.ar    1  UNL1       -0.0003
     13 C         139.5870  139.8729  166.9878 C.ar    1  UNL1        0.0685
     14 C         141.0464  139.7341  166.6706 C.ar    1  UNL1        0.0116
     15 C         141.5068  139.7323  165.2430 C.ar    1  UNL1        0.0170
     16 C         140.5078  139.8693  164.1326 C.ar    1  UNL1        0.0694
     17 C         139.0483  140.0081  164.4498 C.ar    1  UNL1        0.0170
     18 C         138.5879  140.0099  165.8774 C.ar    1  UNL1        0.0116
     19 N         138.6662  139.8764  169.8430 N.1     1  UNL1       -0.1908
     20 C         139.1266  139.8746  168.4154 C.1     1  UNL1        0.1004
     21 C         141.2326  138.4752  159.0916 C.ar    1  UNL1        0.0151
     22 C         142.4613  137.8126  158.5428 C.ar    1  UNL1        0.0013
     23 C         142.3925  137.0610  157.2465 C.ar    1  UNL1        0.0012
     24 C         141.0952  136.9721  156.4990 C.ar    1  UNL1        0.0140
     25 C         139.8665  137.6348  157.0478 C.ar    1  UNL1        0.0012
     26 C         139.9352  138.3863  158.3441 C.ar    1  UNL1        0.0013
     27 C         141.0265  136.2205  155.2027 C.2     1  UNL1        0.0729
     28 O         140.7975  136.9603  153.9180 O.co2   1  UNL1       -0.5446
     29 O         141.1867  134.7291  155.1910 O.co2   1  UNL1       -0.5446
@<TRIPOS>UNITY_ATOM_ATTR
28 1
charge -1
@<TRIPOS>BOND
     1    19    20    3
     2    20    13    1
     3    13    14   ar
     4    14    15   ar
     5    15    16   ar
     6    16     1    1
     7     1     2    1
     8     2     3    2
     9     3    21    1
    10    21    22   ar
    11    22    23   ar
    12    23    24   ar
    13    24    27    1
    14    27    28   ar
    15    27    29   ar
    16    24    25   ar
    17    25    26   ar
    18     3     4    1
    19     4     5    1
    20     5     6    1
    21     6     7   ar
    22     7     8   ar
    23     8     9   ar
    24     9    10    1
    25     9    11   ar
    26    11    12   ar
    27    16    17   ar
    28    17    18   ar
    29    18    13   ar
    30     5     1    1
    31    12     6   ar
    32    26    21   ar
@<TRIPOS>MOLECULE
*****
 29 32 0 0 0
SMALL
GASTEIGER

@<TRIPOS>ATOM
      1 N         141.6230  139.8341  161.5224 N.pl3   1  UNL1       -0.2090
      2 N         141.9919  139.5673  160.0931 N.2     1  UNL1       -0.1821
      3 C         140.9801  138.6183  159.5225 C.2     1  UNL1        0.0785
      4 C         139.9857  138.2986  160.5991 C.3     1  UNL1        0.0737
      5 C         140.3831  139.0500  161.8351 C.3     1  UNL1        0.1244
      6 C         139.6663  139.0221  163.1524 C.ar    1  UNL1       -0.0019
      7 C         139.6292  137.7582  163.9595 C.ar    1  UNL1       -0.0003
      8 C         138.9124  137.7304  165.2769 C.ar    1  UNL1        0.0294
      9 C         138.2328  138.9663  165.7872 C.ar    1  UNL1        0.1401
     10 F         137.5160  138.9385  167.1046 F       1  UNL1       -0.2042
     11 C         138.2699  140.2302  164.9802 C.ar    1  UNL1        0.0294
     12 C         138.9867  140.2580  163.6628 C.ar    1  UNL1       -0.0003
     13 C         143.8456  142.5159  164.3716 C.ar    1  UNL1        0.0685
     14 C         142.7749  143.0837  163.4878 C.ar    1  UNL1        0.0116
     15 C         142.0340  142.1898  162.5381 C.ar    1  UNL1        0.0170
     16 C         142.3638  140.7280  162.4721 C.ar    1  UNL1        0.0694
     17 C         143.4345  140.1602  163.3559 C.ar    1  UNL1        0.0170
     18 C         144.1754  141.0541  164.3056 C.ar    1  UNL1        0.0116
     19 N         145.3273  144.3038  166.2711 N.1     1  UNL1       -0.1908
     20 C         144.5864  143.4098  165.3213 C.1     1  UNL1        0.1004
     21 C         140.9652  138.0830  158.1214 C.ar    1  UNL1        0.0151
     22 C         142.2225  137.5342  157.5148 C.ar    1  UNL1        0.0013
     23 C         142.2077  136.9989  156.1137 C.ar    1  UNL1        0.0012
     24 C         140.9356  137.0125  155.3191 C.ar    1  UNL1        0.0140
     25 C         139.6782  137.5613  155.9257 C.ar    1  UNL1        0.0012
     26 C         139.6930  138.0966  157.3268 C.ar    1  UNL1        0.0013
     27 C         140.9207  136.4772  153.9179 C.2     1  UNL1        0.0729
     28 O         139.6442  136.4728  153.1302 O.co2   1  UNL1       -0.5446
     29 O         142.1824  135.9463  153.3044 O.co2   1  UNL1       -0.5446
@<TRIPOS>UNITY_ATOM_ATTR
28 1
charge -1
@<TRIPOS>BOND
     1    19    20    3
     2    20    13    1
     3    13    14   ar
     4    14    15   ar
     5    15    16   ar
     6    16     1    1
     7     1     2    1
     8     2     3    2
     9     3    21    1
    10    21    22   ar
    11    22    23   ar
    12    23    24   ar
    13    24    27    1
    14    27    28   ar
    15    27    29   ar
    16    24    25   ar
    17    25    26   ar
    18     3     4    1
    19     4     5    1
    20     5     6    1
    21     6     7   ar
    22     7     8   ar
    23     8     9   ar
    24     9    10    1
    25     9    11   ar
    26    11    12   ar
    27    16    17   ar
    28    17    18   ar
    29    18    13   ar
    30     5     1    1
    31    12     6   ar
    32    26    21   ar
@<TRIPOS>MOLECULE
*****
 29 32 0 0 0
SMALL
GASTEIGER

@<TRIPOS>ATOM
      1 N         141.2401  139.8939  159.7921 N.pl3   1  UNL1       -0.2090
      2 N         141.1439  139.9304  161.2885 N.2     1  UNL1       -0.1821
      3 C         139.8399  139.3038  161.6847 C.2     1  UNL1        0.0785
      4 C         139.1302  138.8799  160.4330 C.3     1  UNL1        0.0737
      5 C         139.9956  139.2446  159.2634 C.3     1  UNL1        0.1244
      6 C         139.6730  139.0025  157.8186 C.ar    1  UNL1       -0.0019
      7 C         139.8918  137.6452  157.2185 C.ar    1  UNL1       -0.0003
      8 C         139.5692  137.4031  155.7737 C.ar    1  UNL1        0.0294
      9 C         139.0279  138.5183  154.9290 C.ar    1  UNL1        0.1401
     10 F         138.7053  138.2762  153.4843 F       1  UNL1       -0.2042
     11 C         138.8091  139.8755  155.5291 C.ar    1  UNL1        0.0294
     12 C         139.1317  140.1175  156.9739 C.ar    1  UNL1       -0.0003
     13 C         144.6616  141.4575  157.3225 C.ar    1  UNL1        0.0685
     14 C         144.0534  142.3170  158.3907 C.ar    1  UNL1        0.0116
     15 C         142.9129  141.7958  159.2139 C.ar    1  UNL1        0.0170
     16 C         142.3806  140.4151  158.9689 C.ar    1  UNL1        0.0694
     17 C         142.9888  139.5555  157.9006 C.ar    1  UNL1        0.0170
     18 C         144.1293  140.0767  157.0774 C.ar    1  UNL1        0.0116
     19 N         146.9426  142.4998  155.6761 N.1     1  UNL1       -0.1908
     20 C         145.8021  141.9786  156.4993 C.1     1  UNL1        0.1004
     21 C         139.3344  139.1313  163.0864 C.ar    1  UNL1        0.0151
     22 C         139.3954  137.7851  163.7452 C.ar    1  UNL1        0.0013
     23 C         138.8899  137.6127  165.1469 C.ar    1  UNL1        0.0012
     24 C         138.3235  138.7862  165.8897 C.ar    1  UNL1        0.0140
     25 C         138.2626  140.1324  165.2308 C.ar    1  UNL1        0.0012
     26 C         138.7680  140.3049  163.8292 C.ar    1  UNL1        0.0013
     27 C         137.8180  138.6137  167.2914 C.2     1  UNL1        0.0729
     28 O         136.6872  137.6683  167.5698 O.co2   1  UNL1       -0.5446
     29 O         138.4433  139.3865  168.4147 O.co2   1  UNL1       -0.5446
@<TRIPOS>UNITY_ATOM_ATTR
28 1
charge -1
@<TRIPOS>BOND
     1    19    20    3
     2    20    13    1
     3    13    14   ar
     4    14    15   ar
     5    15    16   ar
     6    16     1    1
     7     1     2    1
     8     2     3    2
     9     3    21    1
    10    21    22   ar
    11    22    23   ar
    12    23    24   ar
    13    24    27    1
    14    27    28   ar
    15    27    29   ar
    16    24    25   ar
    17    25    26   ar
    18     3     4    1
    19     4     5    1
    20     5     6    1
    21     6     7   ar
    22     7     8   ar
    23     8     9   ar
    24     9    10    1
    25     9    11   ar
    26    11    12   ar
    27    16    17   ar
    28    17    18   ar
    29    18    13   ar
    30     5     1    1
    31    12     6   ar
    32    26    21   ar
