@<TRIPOS>MOLECULE
*****
 31 34 0 0 0
SMALL
GASTEIGER

@<TRIPOS>ATOM
      1 N         141.1320  141.4900  166.7376 N.ar    1  UNL1       -0.3266
      2 C         140.5245  142.5843  165.9109 C.ar    1  UNL1        0.0599
      3 C         139.7684  143.8241  166.2865 C.ar    1  UNL1        0.0171
      4 C         139.2720  144.7524  165.2180 C.ar    1  UNL1        0.0053
      5 C         139.5317  144.4410  163.7739 C.ar    1  UNL1        0.0715
      6 C         140.2877  143.2012  163.3982 C.ar    1  UNL1        0.0053
      7 C         140.7841  142.2728  164.4667 C.ar    1  UNL1        0.0171
      8 C         141.5521  140.9860  164.4009 C.ar    1  UNL1        0.0171
      9 C         142.0835  140.1923  163.2444 C.ar    1  UNL1        0.0053
     10 C         142.8298  138.9148  163.4912 C.ar    1  UNL1        0.0715
     11 C         143.0448  138.4309  164.8947 C.ar    1  UNL1        0.0053
     12 C         142.5134  139.2246  166.0513 C.ar    1  UNL1        0.0171
     13 C         141.7671  140.5022  165.8044 C.ar    1  UNL1        0.0599
     14 O         139.1988  139.7761  167.8214 O.3     1  UNL1       -0.3811
     15 C         140.0734  140.4817  168.8150 C.3     1  UNL1        0.1467
     16 C         139.7974  140.1765  170.2574 C.3     1  UNL1        0.1001
     17 N         140.4881  140.7135  171.4758 N.3     1  UNL1       -0.2954
     18 C         141.6255  141.6883  171.5527 C.3     1  UNL1        0.0687
     19 C         142.3532  142.3670  170.4302 C.3     1  UNL1        0.0191
     20 C         142.1230  142.2383  168.9535 C.3     1  UNL1        0.0265
     21 C         141.1085  141.3994  168.2346 C.3     1  UNL1        0.1136
     22 H         138.5667  139.2102  168.2916 H       1  UNL1        0.2105
     23 H         140.8288  139.8844  171.9626 H       1  UNL1        0.1233
     24 C         139.0352  145.3694  162.7054 C.3     1  UNL1        0.4186
     25 F         138.5388  146.2978  161.6369 F       1  UNL1       -0.1659
     26 F         137.6636  144.7743  162.8255 F       1  UNL1       -0.1659
     27 F         140.4068  145.9644  162.5852 F       1  UNL1       -0.1659
     28 C         143.3612  138.1210  162.3346 C.3     1  UNL1        0.4186
     29 F         143.8924  137.3273  161.1780 F       1  UNL1       -0.1659
     30 F         144.6351  138.9117  162.3772 F       1  UNL1       -0.1659
     31 F         142.0871  137.3304  162.2920 F       1  UNL1       -0.1659
@<TRIPOS>BOND
     1    15    14    1
     2    15    16    1
     3    16    17    1
     4    17    18    1
     5    18    19    1
     6    19    20    1
     7    20    21    1
     8    21     1    1
     9     1     2   ar
    10     2     3   ar
    11     3     4   ar
    12     4     5   ar
    13     5    24    1
    14    24    25    1
    15    24    26    1
    16    24    27    1
    17     5     6   ar
    18     6     7   ar
    19     7     8   ar
    20     8     9   ar
    21     9    10   ar
    22    10    28    1
    23    28    29    1
    24    28    30    1
    25    28    31    1
    26    10    11   ar
    27    11    12   ar
    28    12    13   ar
    29    21    15    1
    30    13     1   ar
    31     7     2   ar
    32    13     8   ar
    33    14    22    1
    34    17    23    1
@<TRIPOS>MOLECULE
*****
 31 34 0 0 0
SMALL
GASTEIGER

@<TRIPOS>ATOM
      1 N         141.1314  141.4904  166.7373 N.ar    1  UNL1       -0.3266
      2 C         141.7682  140.5032  165.8046 C.ar    1  UNL1        0.0599
      3 C         142.5156  139.2265  166.0520 C.ar    1  UNL1        0.0171
      4 C         143.0486  138.4333  164.8959 C.ar    1  UNL1        0.0053
      5 C         142.8341  138.9169  163.4922 C.ar    1  UNL1        0.0715
      6 C         142.0867  140.1936  163.2448 C.ar    1  UNL1        0.0053
      7 C         141.5538  140.9868  164.4009 C.ar    1  UNL1        0.0171
      8 C         140.7844  142.2728  164.4662 C.ar    1  UNL1        0.0171
      9 C         140.2879  143.2007  163.3973 C.ar    1  UNL1        0.0053
     10 C         139.5302  144.4398  163.7724 C.ar    1  UNL1        0.0715
     11 C         139.2692  144.7510  165.2163 C.ar    1  UNL1        0.0053
     12 C         139.7658  143.8232  166.2852 C.ar    1  UNL1        0.0171
     13 C         140.5234  142.5841  165.9101 C.ar    1  UNL1        0.0599
     14 O         139.1956  139.7787  167.8200 O.3     1  UNL1       -0.3811
     15 C         140.0704  140.4833  168.8141 C.3     1  UNL1        0.1467
     16 C         139.7932  140.1783  170.2562 C.3     1  UNL1        0.1001
     17 N         140.4838  140.7144  171.4751 N.3     1  UNL1       -0.2954
     18 C         141.6224  141.6879  171.5527 C.3     1  UNL1        0.0687
     19 C         142.3515  142.3658  170.4306 C.3     1  UNL1        0.0191
     20 C         142.1220  142.2375  168.9538 C.3     1  UNL1        0.0265
     21 C         141.1069  141.3998  168.2344 C.3     1  UNL1        0.1136
     22 H         138.5625  139.2136  168.2898 H       1  UNL1        0.2105
     23 H         140.8233  139.8849  171.9621 H       1  UNL1        0.1233
     24 C         143.3672  138.1236  162.3360 C.3     1  UNL1        0.4186
     25 F         143.9001  137.3304  161.1799 F       1  UNL1       -0.1659
     26 F         144.6414  138.9137  162.3813 F       1  UNL1       -0.1659
     27 F         142.0929  137.3335  162.2907 F       1  UNL1       -0.1659
     28 C         139.0337  145.3676  162.7035 C.3     1  UNL1        0.4186
     29 F         138.5371  146.2955  161.6346 F       1  UNL1       -0.1659
     30 F         140.4044  145.9652  162.5853 F       1  UNL1       -0.1659
     31 F         137.6629  144.7700  162.8217 F       1  UNL1       -0.1659
@<TRIPOS>BOND
     1    15    14    1
     2    15    16    1
     3    16    17    1
     4    17    18    1
     5    18    19    1
     6    19    20    1
     7    20    21    1
     8    21     1    1
     9     1     2   ar
    10     2     3   ar
    11     3     4   ar
    12     4     5   ar
    13     5    24    1
    14    24    25    1
    15    24    26    1
    16    24    27    1
    17     5     6   ar
    18     6     7   ar
    19     7     8   ar
    20     8     9   ar
    21     9    10   ar
    22    10    28    1
    23    28    29    1
    24    28    30    1
    25    28    31    1
    26    10    11   ar
    27    11    12   ar
    28    12    13   ar
    29    21    15    1
    30    13     1   ar
    31     7     2   ar
    32    13     8   ar
    33    14    22    1
    34    17    23    1
@<TRIPOS>MOLECULE
*****
 31 34 0 0 0
SMALL
GASTEIGER

@<TRIPOS>ATOM
      1 N         141.2251  141.4626  166.6151 N.ar    1  UNL1       -0.3266
      2 C         141.8330  140.4735  165.6653 C.ar    1  UNL1        0.0599
      3 C         142.5628  139.1827  165.8915 C.ar    1  UNL1        0.0171
      4 C         143.0670  138.3912  164.7213 C.ar    1  UNL1        0.0053
      5 C         142.8413  138.8905  163.3250 C.ar    1  UNL1        0.0715
      6 C         142.1114  140.1813  163.0988 C.ar    1  UNL1        0.0053
      7 C         141.6073  140.9728  164.2690 C.ar    1  UNL1        0.0171
      8 C         140.8600  142.2704  164.3559 C.ar    1  UNL1        0.0171
      9 C         140.3640  143.2156  163.3019 C.ar    1  UNL1        0.0053
     10 C         139.6319  144.4634  163.6980 C.ar    1  UNL1        0.0715
     11 C         139.3956  144.7661  165.1481 C.ar    1  UNL1        0.0053
     12 C         139.8916  143.8210  166.2020 C.ar    1  UNL1        0.0171
     13 C         140.6237  142.5732  165.8059 C.ar    1  UNL1        0.0599
     14 O         143.4037  142.6425  167.9232 O.3     1  UNL1       -0.3811
     15 C         142.3861  141.9909  168.8119 C.3     1  UNL1        0.1467
     16 C         142.6693  142.0572  170.2834 C.3     1  UNL1        0.1001
     17 N         141.8563  141.5082  171.4181 N.3     1  UNL1       -0.2954
     18 C         140.5590  140.7573  171.3614 C.3     1  UNL1        0.0687
     19 C         139.7544  140.3699  170.1562 C.3     1  UNL1        0.0191
     20 C         140.0485  140.6378  168.7099 C.3     1  UNL1        0.0265
     21 C         141.2196  141.3592  168.1116 C.3     1  UNL1        0.1136
     22 H         144.1136  143.0191  168.4664 H       1  UNL1        0.2105
     23 H         141.6572  142.3183  172.0051 H       1  UNL1        0.1233
     24 C         143.3455  138.0990  162.1548 C.3     1  UNL1        0.4186
     25 F         143.8497  137.3075  160.9846 F       1  UNL1       -0.1659
     26 F         142.0375  137.3681  162.0855 F       1  UNL1       -0.1659
     27 F         144.6535  138.8299  162.2240 F       1  UNL1       -0.1659
     28 C         139.1359  145.4085  162.6440 C.3     1  UNL1        0.4186
     29 F         138.6399  146.3536  161.5901 F       1  UNL1       -0.1659
     30 F         140.5118  145.9930  162.5207 F       1  UNL1       -0.1659
     31 F         137.7600  144.8240  162.7674 F       1  UNL1       -0.1659
@<TRIPOS>BOND
     1    15    14    1
     2    15    16    1
     3    16    17    1
     4    17    18    1
     5    18    19    1
     6    19    20    1
     7    20    21    1
     8    21     1    1
     9     1     2   ar
    10     2     3   ar
    11     3     4   ar
    12     4     5   ar
    13     5    24    1
    14    24    25    1
    15    24    26    1
    16    24    27    1
    17     5     6   ar
    18     6     7   ar
    19     7     8   ar
    20     8     9   ar
    21     9    10   ar
    22    10    28    1
    23    28    29    1
    24    28    30    1
    25    28    31    1
    26    10    11   ar
    27    11    12   ar
    28    12    13   ar
    29    21    15    1
    30    13     1   ar
    31     7     2   ar
    32    13     8   ar
    33    14    22    1
    34    17    23    1
@<TRIPOS>MOLECULE
*****
 31 34 0 0 0
SMALL
GASTEIGER

@<TRIPOS>ATOM
      1 N         141.4924  141.0112  166.7291 N.ar    1  UNL1       -0.3266
      2 C         140.4928  140.2428  165.9166 C.ar    1  UNL1        0.0599
      3 C         139.3131  139.4034  166.3088 C.ar    1  UNL1        0.0171
      4 C         138.4783  138.7427  165.2522 C.ar    1  UNL1        0.0053
      5 C         138.8232  138.9214  163.8033 C.ar    1  UNL1        0.0715
      6 C         140.0028  139.7607  163.4111 C.ar    1  UNL1        0.0053
      7 C         140.8376  140.4214  164.4677 C.ar    1  UNL1        0.0171
      8 C         142.0504  141.3003  164.3849 C.ar    1  UNL1        0.0171
      9 C         142.8384  141.8157  163.2173 C.ar    1  UNL1        0.0053
     10 C         144.0312  142.6957  163.4474 C.ar    1  UNL1        0.0715
     11 C         144.4359  143.0603  164.8450 C.ar    1  UNL1        0.0053
     12 C         143.6478  142.5449  166.0126 C.ar    1  UNL1        0.0171
     13 C         142.4550  141.6648  165.7825 C.ar    1  UNL1        0.0599
     14 O         143.1194  139.1416  168.0355 O.3     1  UNL1       -0.3811
     15 C         142.3949  140.1079  168.9251 C.3     1  UNL1        0.1467
     16 C         142.6373  139.9455  170.3963 C.3     1  UNL1        0.1001
     17 N         142.0686  140.7439  171.5317 N.3     1  UNL1       -0.2954
     18 C         141.1169  141.9020  171.4761 C.3     1  UNL1        0.0687
     19 C         140.4989  142.5477  170.2715 C.3     1  UNL1        0.0191
     20 C         140.6801  142.1947  168.8248 C.3     1  UNL1        0.0265
     21 C         141.5238  141.1090  168.2256 C.3     1  UNL1        0.1136
     22 H         143.6523  138.5396  168.5782 H       1  UNL1        0.2105
     23 H         142.8853  141.1077  172.0226 H       1  UNL1        0.1233
     24 C         137.9883  138.2606  162.7466 C.3     1  UNL1        0.4186
     25 F         137.1534  137.5999  161.6900 F       1  UNL1       -0.1659
     26 F         138.4651  136.9162  163.2105 F       1  UNL1       -0.1659
     27 F         137.5115  139.6050  162.2828 F       1  UNL1       -0.1659
     28 C         144.8193  143.2112  162.2798 C.3     1  UNL1        0.4186
     29 F         145.6074  143.7267  161.1122 F       1  UNL1       -0.1659
     30 F         145.1958  141.8062  161.9135 F       1  UNL1       -0.1659
     31 F         144.4428  144.6162  162.6460 F       1  UNL1       -0.1659
@<TRIPOS>BOND
     1    15    14    1
     2    15    16    1
     3    16    17    1
     4    17    18    1
     5    18    19    1
     6    19    20    1
     7    20    21    1
     8    21     1    1
     9     1     2   ar
    10     2     3   ar
    11     3     4   ar
    12     4     5   ar
    13     5    24    1
    14    24    25    1
    15    24    26    1
    16    24    27    1
    17     5     6   ar
    18     6     7   ar
    19     7     8   ar
    20     8     9   ar
    21     9    10   ar
    22    10    28    1
    23    28    29    1
    24    28    30    1
    25    28    31    1
    26    10    11   ar
    27    11    12   ar
    28    12    13   ar
    29    21    15    1
    30    13     1   ar
    31     7     2   ar
    32    13     8   ar
    33    14    22    1
    34    17    23    1
@<TRIPOS>MOLECULE
*****
 31 34 0 0 0
SMALL
GASTEIGER

@<TRIPOS>ATOM
      1 N         141.5082  139.6816  161.4764 N.ar    1  UNL1       -0.3266
      2 C         142.3019  140.7956  162.0920 C.ar    1  UNL1        0.0599
      3 C         143.3785  141.6838  161.5424 C.ar    1  UNL1        0.0171
      4 C         144.0022  142.7334  162.4137 C.ar    1  UNL1        0.0053
      5 C         143.5494  142.8950  163.8345 C.ar    1  UNL1        0.0715
      6 C         142.4728  142.0068  164.3841 C.ar    1  UNL1        0.0053
      7 C         141.8491  140.9572  163.5129 C.ar    1  UNL1        0.0171
      8 C         140.7755  139.9430  163.7753 C.ar    1  UNL1        0.0171
      9 C         139.9625  139.6355  164.9978 C.ar    1  UNL1        0.0053
     10 C         138.9388  138.5397  164.9617 C.ar    1  UNL1        0.0715
     11 C         138.7281  137.7513  163.7030 C.ar    1  UNL1        0.0053
     12 C         139.5411  138.0588  162.4806 C.ar    1  UNL1        0.0171
     13 C         140.5648  139.1547  162.5167 C.ar    1  UNL1        0.0599
     14 O         143.1191  137.4156  161.1309 O.3     1  UNL1       -0.3811
     15 C         142.4981  137.9690  159.8827 C.3     1  UNL1        0.1467
     16 C         142.8216  137.2361  158.6147 C.3     1  UNL1        0.1001
     17 N         142.3626  137.5352  157.2183 N.3     1  UNL1       -0.2954
     18 C         141.4666  138.6413  156.7452 C.3     1  UNL1        0.0687
     19 C         140.8084  139.7214  157.5515 C.3     1  UNL1        0.0191
     20 C         140.8836  139.9621  159.0302 C.3     1  UNL1        0.0265
     21 C         141.6355  139.1823  160.0677 C.3     1  UNL1        0.1136
     22 H         143.6543  136.6378  160.9084 H       1  UNL1        0.2105
     23 H         141.8961  136.6807  156.9141 H       1  UNL1        0.1233
     24 C         144.1732  143.9447  164.7058 C.3     1  UNL1        0.4186
     25 F         144.7969  144.9944  165.5770 F       1  UNL1       -0.1659
     26 F         145.2502  142.9779  165.0996 F       1  UNL1       -0.1659
     27 F         143.0961  144.9115  164.3120 F       1  UNL1       -0.1659
     28 C         138.1258  138.2322  166.1842 C.3     1  UNL1        0.4186
     29 F         137.3128  137.9248  167.4067 F       1  UNL1       -0.1659
     30 F         138.1959  136.7687  165.8628 F       1  UNL1       -0.1659
     31 F         138.0557  139.6957  166.5055 F       1  UNL1       -0.1659
@<TRIPOS>BOND
     1    15    14    1
     2    15    16    1
     3    16    17    1
     4    17    18    1
     5    18    19    1
     6    19    20    1
     7    20    21    1
     8    21     1    1
     9     1     2   ar
    10     2     3   ar
    11     3     4   ar
    12     4     5   ar
    13     5    24    1
    14    24    25    1
    15    24    26    1
    16    24    27    1
    17     5     6   ar
    18     6     7   ar
    19     7     8   ar
    20     8     9   ar
    21     9    10   ar
    22    10    28    1
    23    28    29    1
    24    28    30    1
    25    28    31    1
    26    10    11   ar
    27    11    12   ar
    28    12    13   ar
    29    21    15    1
    30    13     1   ar
    31     7     2   ar
    32    13     8   ar
    33    14    22    1
    34    17    23    1
@<TRIPOS>MOLECULE
*****
 31 34 0 0 0
SMALL
GASTEIGER

@<TRIPOS>ATOM
      1 N         141.5200  139.8061  161.3702 N.ar    1  UNL1       -0.3266
      2 C         140.6006  139.2512  162.4174 C.ar    1  UNL1        0.0599
      3 C         139.6146  138.1211  162.3905 C.ar    1  UNL1        0.0171
      4 C         138.8190  137.7906  163.6184 C.ar    1  UNL1        0.0053
      5 C         139.0094  138.5902  164.8732 C.ar    1  UNL1        0.0715
      6 C         139.9953  139.7203  164.9001 C.ar    1  UNL1        0.0053
      7 C         140.7909  140.0507  163.6722 C.ar    1  UNL1        0.0171
      8 C         141.8280  141.0998  163.4004 C.ar    1  UNL1        0.0171
      9 C         142.4203  142.1733  164.2646 C.ar    1  UNL1        0.0053
     10 C         143.4632  143.0955  163.7062 C.ar    1  UNL1        0.0715
     11 C         143.9138  142.9444  162.2835 C.ar    1  UNL1        0.0053
     12 C         143.3215  141.8709  161.4193 C.ar    1  UNL1        0.0171
     13 C         142.2786  140.9487  161.9777 C.ar    1  UNL1        0.0599
     14 O         143.0313  137.4686  161.0518 O.3     1  UNL1       -0.3811
     15 C         142.4660  138.0547  159.7921 C.3     1  UNL1        0.1467
     16 C         142.7845  137.3118  158.5286 C.3     1  UNL1        0.1001
     17 N         142.3727  137.6369  157.1233 N.3     1  UNL1       -0.2954
     18 C         141.5405  138.7852  156.6347 C.3     1  UNL1        0.0687
     19 C         140.9146  139.8920  157.4304 C.3     1  UNL1        0.0191
     20 C         140.9664  140.1238  158.9115 C.3     1  UNL1        0.0265
     21 C         141.6568  139.3062  159.9626 C.3     1  UNL1        0.1136
     22 H         143.5348  136.6675  160.8382 H       1  UNL1        0.2105
     23 H         141.8741  136.8061  156.8045 H       1  UNL1        0.1233
     24 C         138.2137  138.2596  166.1011 C.3     1  UNL1        0.4186
     25 F         137.4181  137.9291  167.3290 F       1  UNL1       -0.1659
     26 F         138.3018  136.8004  165.7654 F       1  UNL1       -0.1659
     27 F         138.1256  139.7189  166.4368 F       1  UNL1       -0.1659
     28 C         144.0554  144.1690  164.5705 C.3     1  UNL1        0.4186
     29 F         144.6477  145.2425  165.4347 F       1  UNL1       -0.1659
     30 F         144.9120  143.1454  165.2549 F       1  UNL1       -0.1659
     31 F         143.1988  145.1926  163.8860 F       1  UNL1       -0.1659
@<TRIPOS>BOND
     1    15    14    1
     2    15    16    1
     3    16    17    1
     4    17    18    1
     5    18    19    1
     6    19    20    1
     7    20    21    1
     8    21     1    1
     9     1     2   ar
    10     2     3   ar
    11     3     4   ar
    12     4     5   ar
    13     5    24    1
    14    24    25    1
    15    24    26    1
    16    24    27    1
    17     5     6   ar
    18     6     7   ar
    19     7     8   ar
    20     8     9   ar
    21     9    10   ar
    22    10    28    1
    23    28    29    1
    24    28    30    1
    25    28    31    1
    26    10    11   ar
    27    11    12   ar
    28    12    13   ar
    29    21    15    1
    30    13     1   ar
    31     7     2   ar
    32    13     8   ar
    33    14    22    1
    34    17    23    1
@<TRIPOS>MOLECULE
*****
 31 34 0 0 0
SMALL
GASTEIGER

@<TRIPOS>ATOM
      1 N         142.5397  141.8635  161.5077 N.ar    1  UNL1       -0.3266
      2 C         143.0526  140.8807  162.5182 C.ar    1  UNL1        0.0599
      3 C         144.1352  139.8446  162.4509 C.ar    1  UNL1        0.0171
      4 C         144.4300  138.9893  163.6473 C.ar    1  UNL1        0.0053
      5 C         143.6423  139.1700  164.9109 C.ar    1  UNL1        0.0715
      6 C         142.5598  140.2061  164.9783 C.ar    1  UNL1        0.0053
      7 C         142.2650  141.0615  163.7819 C.ar    1  UNL1        0.0171
      8 C         141.2652  142.1560  163.5524 C.ar    1  UNL1        0.0171
      9 C         140.2222  142.7652  164.4417 C.ar    1  UNL1        0.0053
     10 C         139.3490  143.8702  163.9254 C.ar    1  UNL1        0.0715
     11 C         139.5187  144.3659  162.5199 C.ar    1  UNL1        0.0053
     12 C         140.5618  143.7567  161.6307 C.ar    1  UNL1        0.0171
     13 C         141.4350  142.6517  162.1469 C.ar    1  UNL1        0.0599
     14 O         145.1246  142.9152  161.2598 O.3     1  UNL1       -0.3811
     15 C         144.4271  142.5922  159.9717 C.3     1  UNL1        0.1467
     16 C         145.2057  142.8749  158.7212 C.3     1  UNL1        0.1001
     17 N         144.7928  142.6645  157.2946 N.3     1  UNL1       -0.2954
     18 C         143.4992  142.1192  156.7662 C.3     1  UNL1        0.0687
     19 C         142.2990  141.6498  157.5338 C.3     1  UNL1        0.0191
     20 C         142.0961  141.6097  159.0195 C.3     1  UNL1        0.0265
     21 C         143.0431  142.0291  160.1045 C.3     1  UNL1        0.1136
     22 H         146.0067  143.2711  161.0694 H       1  UNL1        0.2105
     23 H         145.5068  142.0455  156.9106 H       1  UNL1        0.1233
     24 C         143.9372  138.3146  166.1074 C.3     1  UNL1        0.4186
     25 F         144.2322  137.4592  167.3037 F       1  UNL1       -0.1659
     26 F         142.4853  138.3392  166.4829 F       1  UNL1       -0.1659
     27 F         145.3892  138.2900  165.7318 F       1  UNL1       -0.1659
     28 C         138.3059  144.4795  164.8148 C.3     1  UNL1        0.4186
     29 F         137.2629  145.0888  165.7041 F       1  UNL1       -0.1659
     30 F         137.3146  144.4239  163.6904 F       1  UNL1       -0.1659
     31 F         139.2972  144.5351  165.9392 F       1  UNL1       -0.1659
@<TRIPOS>BOND
     1    15    14    1
     2    15    16    1
     3    16    17    1
     4    17    18    1
     5    18    19    1
     6    19    20    1
     7    20    21    1
     8    21     1    1
     9     1     2   ar
    10     2     3   ar
    11     3     4   ar
    12     4     5   ar
    13     5    24    1
    14    24    25    1
    15    24    26    1
    16    24    27    1
    17     5     6   ar
    18     6     7   ar
    19     7     8   ar
    20     8     9   ar
    21     9    10   ar
    22    10    28    1
    23    28    29    1
    24    28    30    1
    25    28    31    1
    26    10    11   ar
    27    11    12   ar
    28    12    13   ar
    29    21    15    1
    30    13     1   ar
    31     7     2   ar
    32    13     8   ar
    33    14    22    1
    34    17    23    1
@<TRIPOS>MOLECULE
*****
 31 34 0 0 0
SMALL
GASTEIGER

@<TRIPOS>ATOM
      1 N         141.9116  140.3778  163.6740 N.ar    1  UNL1       -0.3266
      2 C         142.3274  139.8050  164.9965 C.ar    1  UNL1        0.0599
      3 C         143.2484  138.6773  165.3569 C.ar    1  UNL1        0.0171
      4 C         143.4753  138.3254  166.7973 C.ar    1  UNL1        0.0053
      5 C         142.7813  139.1013  167.8772 C.ar    1  UNL1        0.0715
      6 C         141.8604  140.2291  167.5168 C.ar    1  UNL1        0.0053
      7 C         141.6334  140.5810  166.0765 C.ar    1  UNL1        0.0171
      8 C         140.7887  141.6332  165.4214 C.ar    1  UNL1        0.0171
      9 C         139.8851  142.6895  165.9851 C.ar    1  UNL1        0.0053
     10 C         139.1534  143.6202  165.0640 C.ar    1  UNL1        0.0715
     11 C         139.3253  143.4947  163.5792 C.ar    1  UNL1        0.0053
     12 C         140.2289  142.4384  163.0155 C.ar    1  UNL1        0.0171
     13 C         140.9606  141.5076  163.9366 C.ar    1  UNL1        0.0599
     14 O         144.1702  141.6664  162.6314 O.3     1  UNL1       -0.3811
     15 C         143.5762  140.5937  161.7674 C.3     1  UNL1        0.1467
     16 C         144.2699  140.3529  160.4595 C.3     1  UNL1        0.1001
     17 N         143.9257  139.3625  159.3867 N.3     1  UNL1       -0.2954
     18 C         142.8028  138.3685  159.3570 C.3     1  UNL1        0.0687
     19 C         141.7466  138.1193  160.3926 C.3     1  UNL1        0.0191
     20 C         141.5527  138.8026  161.7138 C.3     1  UNL1        0.0265
     21 C         142.3668  139.9038  162.3257 C.3     1  UNL1        0.1136
     22 H         144.9422  142.0496  162.1862 H       1  UNL1        0.2105
     23 H         144.7689  138.7988  159.2793 H       1  UNL1        0.1233
     24 C         143.0083  138.7494  169.3177 C.3     1  UNL1        0.4186
     25 F         143.2353  138.3975  170.7580 F       1  UNL1       -0.1659
     26 F         142.4270  140.0688  169.7316 F       1  UNL1       -0.1659
     27 F         143.5896  137.4301  168.9037 F       1  UNL1       -0.1659
     28 C         138.2498  144.6766  165.6277 C.3     1  UNL1        0.4186
     29 F         137.3463  145.7329  166.1914 F       1  UNL1       -0.1659
     30 F         139.1397  144.7967  166.8292 F       1  UNL1       -0.1659
     31 F         137.3599  144.5564  164.4262 F       1  UNL1       -0.1659
@<TRIPOS>BOND
     1    15    14    1
     2    15    16    1
     3    16    17    1
     4    17    18    1
     5    18    19    1
     6    19    20    1
     7    20    21    1
     8    21     1    1
     9     1     2   ar
    10     2     3   ar
    11     3     4   ar
    12     4     5   ar
    13     5    24    1
    14    24    25    1
    15    24    26    1
    16    24    27    1
    17     5     6   ar
    18     6     7   ar
    19     7     8   ar
    20     8     9   ar
    21     9    10   ar
    22    10    28    1
    23    28    29    1
    24    28    30    1
    25    28    31    1
    26    10    11   ar
    27    11    12   ar
    28    12    13   ar
    29    21    15    1
    30    13     1   ar
    31     7     2   ar
    32    13     8   ar
    33    14    22    1
    34    17    23    1
@<TRIPOS>MOLECULE
*****
 31 34 0 0 0
SMALL
GASTEIGER

@<TRIPOS>ATOM
      1 N         142.3878  141.4511  162.6933 N.ar    1  UNL1       -0.3266
      2 C         142.7794  140.5688  163.8414 C.ar    1  UNL1        0.0599
      3 C         143.7872  139.4642  163.9601 C.ar    1  UNL1        0.0171
      4 C         143.9615  138.7450  165.2648 C.ar    1  UNL1        0.0053
      5 C         143.1280  139.1305  166.4509 C.ar    1  UNL1        0.0715
      6 C         142.1202  140.2351  166.3322 C.ar    1  UNL1        0.0053
      7 C         141.9459  140.9542  165.0275 C.ar    1  UNL1        0.0171
      8 C         141.0392  142.0748  164.6123 C.ar    1  UNL1        0.0171
      9 C         140.0002  142.8552  165.3616 C.ar    1  UNL1        0.0053
     10 C         139.2343  143.9427  164.6682 C.ar    1  UNL1        0.0715
     11 C         139.5074  144.2498  163.2256 C.ar    1  UNL1        0.0053
     12 C         140.5464  143.4694  162.4764 C.ar    1  UNL1        0.0171
     13 C         141.3123  142.3819  163.1697 C.ar    1  UNL1        0.0599
     14 O         144.4104  143.3177  162.1697 O.3     1  UNL1       -0.3811
     15 C         144.0526  142.4093  161.0310 C.3     1  UNL1        0.1467
     16 C         144.8249  142.6204  159.7626 C.3     1  UNL1        0.1001
     17 N         144.7051  141.8842  158.4611 N.3     1  UNL1       -0.2954
     18 C         143.7833  140.7552  158.1068 C.3     1  UNL1        0.0687
     19 C         142.7537  140.0834  158.9662 C.3     1  UNL1        0.0191
     20 C         142.3917  140.3748  160.3924 C.3     1  UNL1        0.0265
     21 C         142.9696  141.4099  161.3113 C.3     1  UNL1        0.1136
     22 H         145.1153  143.9231  161.8912 H       1  UNL1        0.2105
     23 H         145.6401  141.5142  158.2899 H       1  UNL1        0.1233
     24 C         143.3024  138.4113  167.7557 C.3     1  UNL1        0.4186
     25 F         143.4768  137.6921  169.0604 F       1  UNL1       -0.1659
     26 F         144.1706  137.3928  167.0783 F       1  UNL1       -0.1659
     27 F         142.4342  139.4297  168.4330 F       1  UNL1       -0.1659
     28 C         138.1952  144.7231  165.4175 C.3     1  UNL1        0.4186
     29 F         137.1562  145.5035  166.1668 F       1  UNL1       -0.1659
     30 F         139.1438  144.8809  166.5687 F       1  UNL1       -0.1659
     31 F         137.2467  144.5653  164.2663 F       1  UNL1       -0.1659
@<TRIPOS>BOND
     1    15    14    1
     2    15    16    1
     3    16    17    1
     4    17    18    1
     5    18    19    1
     6    19    20    1
     7    20    21    1
     8    21     1    1
     9     1     2   ar
    10     2     3   ar
    11     3     4   ar
    12     4     5   ar
    13     5    24    1
    14    24    25    1
    15    24    26    1
    16    24    27    1
    17     5     6   ar
    18     6     7   ar
    19     7     8   ar
    20     8     9   ar
    21     9    10   ar
    22    10    28    1
    23    28    29    1
    24    28    30    1
    25    28    31    1
    26    10    11   ar
    27    11    12   ar
    28    12    13   ar
    29    21    15    1
    30    13     1   ar
    31     7     2   ar
    32    13     8   ar
    33    14    22    1
    34    17    23    1
