@<TRIPOS>MOLECULE
*****
 31 34 0 0 0
SMALL
GASTEIGER

@<TRIPOS>ATOM
      1 C         143.9585  141.7242  159.2341 C.ar    1  UNL1        0.1345
      2 C         143.0168  142.8911  159.2739 C.ar    1  UNL1        0.0253
      3 C         142.2578  143.1997  160.5303 C.ar    1  UNL1        0.0219
      4 C         142.4404  142.3414  161.7469 C.ar    1  UNL1        0.0985
      5 N         141.5630  142.8864  162.8346 N.2     1  UNL1       -0.2478
      6 C         140.8381  144.0815  162.2903 C.2     1  UNL1        0.0627
      7 C         139.8425  145.0184  162.9074 C.3     1  UNL1        0.0622
      8 C         139.4130  144.8248  164.3316 C.3     1  UNL1        0.0110
      9 C         139.2763  146.1490  162.1005 C.2     1  UNL1       -0.0205
     10 C         139.7057  146.3427  160.6764 C.2     1  UNL1       -0.0042
     11 C         140.7013  145.4057  160.0592 C.2     1  UNL1        0.0009
     12 C         141.2675  144.2752  160.8662 C.2     1  UNL1        0.0154
     13 C         143.3821  141.1745  161.7070 C.ar    1  UNL1        0.0990
     14 N         144.1411  140.8659  160.4506 N.ar    1  UNL1       -0.2393
     15 C         143.5647  140.3162  162.9235 C.ar    1  UNL1        0.0200
     16 C         144.8585  140.3548  163.6813 C.ar    1  UNL1        0.0025
     17 C         145.0411  139.4964  164.8978 C.ar    1  UNL1        0.0123
     18 C         143.9298  138.5995  165.3565 C.ar    1  UNL1        0.0682
     19 CL        144.1124  137.7412  166.5731 Cl      1  UNL1       -0.0814
     20 C         142.6359  138.5608  164.5987 C.ar    1  UNL1        0.0682
     21 CL        141.5246  137.6639  165.0574 Cl      1  UNL1       -0.0814
     22 C         142.4533  139.4192  163.3823 C.ar    1  UNL1        0.0138
     23 N         145.4214  142.5143  157.2376 N.am    1  UNL1       -0.2982
     24 C         144.7176  141.4156  157.9776 C.2     1  UNL1        0.2636
     25 O         144.7727  140.0084  157.4612 O.2     1  UNL1       -0.2685
     26 H         145.3852  143.4379  157.5765 H       1  UNL1        0.1498
     27 C         146.1804  142.2056  155.9811 C.3     1  UNL1        0.1068
     28 C         147.5820  142.7112  155.8083 C.3     1  UNL1        0.0901
     29 C         149.7997  141.5436  155.1237 C.3     1  UNL1        0.0859
     30 N         148.7453  141.8288  156.1519 N.3     1  UNL1       -0.2949
     31 H         149.2177  142.2603  156.9462 H       1  UNL1        0.1233
@<TRIPOS>BOND
     1    29    30    1
     2    30    28    1
     3    28    27    1
     4    27    23    1
     5    23    24   am
     6    24    25    2
     7    24     1    1
     8     1     2   ar
     9     2     3   ar
    10     3     4   ar
    11     4     5    1
    12     5     6    2
    13     6     7    1
    14     7     8    1
    15     7     9    1
    16     9    10    2
    17    10    11    1
    18    11    12    2
    19     4    13   ar
    20    13    15    1
    21    15    16   ar
    22    16    17   ar
    23    17    18   ar
    24    18    19    1
    25    18    20   ar
    26    20    21    1
    27    20    22   ar
    28    13    14   ar
    29    14     1   ar
    30    12     3    1
    31    22    15   ar
    32    12     6    1
    33    30    31    1
    34    23    26    1
@<TRIPOS>MOLECULE
*****
 31 34 0 0 0
SMALL
GASTEIGER

@<TRIPOS>ATOM
      1 C         136.2512  141.1219  156.2599 C.ar    1  UNL1        0.1345
      2 C         136.6115  142.5073  155.8118 C.ar    1  UNL1        0.0253
      3 C         137.9350  143.0995  156.1963 C.ar    1  UNL1        0.0219
      4 C         138.8980  142.3062  157.0289 C.ar    1  UNL1        0.0985
      5 N         140.1202  143.1469  157.2512 N.2     1  UNL1       -0.2478
      6 C         139.9125  144.4598  156.5561 C.2     1  UNL1        0.0627
      7 C         140.7786  145.6782  156.4326 C.3     1  UNL1        0.0622
      8 C         142.1292  145.7076  157.0846 C.3     1  UNL1        0.0110
      9 C         140.2941  146.8673  155.6571 C.2     1  UNL1       -0.0205
     10 C         138.9436  146.8379  155.0051 C.2     1  UNL1       -0.0042
     11 C         138.0774  145.6195  155.1286 C.2     1  UNL1        0.0009
     12 C         138.5619  144.4305  155.9041 C.2     1  UNL1        0.0154
     13 C         138.5377  140.9207  157.4769 C.ar    1  UNL1        0.0990
     14 N         137.2143  140.3286  157.0924 N.ar    1  UNL1       -0.2393
     15 C         139.5008  140.1275  158.3095 C.ar    1  UNL1        0.0200
     16 C         140.9429  140.0379  157.9071 C.ar    1  UNL1        0.0025
     17 C         141.9060  139.2446  158.7398 C.ar    1  UNL1        0.0123
     18 C         141.4268  138.5408  159.9747 C.ar    1  UNL1        0.0682
     19 CL        142.3899  137.7475  160.8073 Cl      1  UNL1       -0.0814
     20 C         139.9846  138.6304  160.3771 C.ar    1  UNL1        0.0682
     21 CL        139.5054  137.9266  161.6120 Cl      1  UNL1       -0.0814
     22 C         139.0216  139.4237  159.5445 C.ar    1  UNL1        0.0138
     23 N         133.6789  141.3543  155.9779 N.am    1  UNL1       -0.2982
     24 C         134.9277  140.5297  155.8753 C.2     1  UNL1        0.2636
     25 O         134.8532  139.1130  155.3882 O.2     1  UNL1       -0.2685
     26 H         133.7279  142.2842  156.2977 H       1  UNL1        0.1498
     27 C         132.3555  140.7622  155.5934 C.3     1  UNL1        0.1068
     28 C         131.4720  140.1555  156.6427 C.3     1  UNL1        0.0901
     29 C         132.8300  138.5629  158.1821 C.3     1  UNL1        0.0859
     30 N         132.0328  139.8194  157.9927 N.3     1  UNL1       -0.2949
     31 H         132.6377  140.5953  158.2617 H       1  UNL1        0.1233
@<TRIPOS>BOND
     1    29    30    1
     2    30    28    1
     3    28    27    1
     4    27    23    1
     5    23    24   am
     6    24    25    2
     7    24     1    1
     8     1     2   ar
     9     2     3   ar
    10     3     4   ar
    11     4     5    1
    12     5     6    2
    13     6     7    1
    14     7     8    1
    15     7     9    1
    16     9    10    2
    17    10    11    1
    18    11    12    2
    19     4    13   ar
    20    13    15    1
    21    15    16   ar
    22    16    17   ar
    23    17    18   ar
    24    18    19    1
    25    18    20   ar
    26    20    21    1
    27    20    22   ar
    28    13    14   ar
    29    14     1   ar
    30    12     3    1
    31    22    15   ar
    32    12     6    1
    33    30    31    1
    34    23    26    1
@<TRIPOS>MOLECULE
*****
 31 34 0 0 0
SMALL
GASTEIGER

@<TRIPOS>ATOM
      1 C         142.5855  137.8131  157.5175 C.ar    1  UNL1        0.1345
      2 C         142.0103  139.0613  156.9167 C.ar    1  UNL1        0.0253
      3 C         141.7136  140.2454  157.7883 C.ar    1  UNL1        0.0219
      4 C         141.9920  140.1813  159.2608 C.ar    1  UNL1        0.0985
      5 N         141.5993  141.4971  159.8645 N.2     1  UNL1       -0.2478
      6 C         141.0781  142.3744  158.7651 C.2     1  UNL1        0.0627
      7 C         140.5484  143.7777  158.7667 C.3     1  UNL1        0.0622
      8 C         140.4778  144.5513  160.0499 C.3     1  UNL1        0.0110
      9 C         140.0893  144.4075  157.4851 C.2     1  UNL1       -0.0205
     10 C         140.1599  143.6339  156.2019 C.2     1  UNL1       -0.0042
     11 C         140.6897  142.2306  156.2003 C.2     1  UNL1        0.0009
     12 C         141.1488  141.6009  157.4819 C.2     1  UNL1        0.0154
     13 C         142.5672  138.9330  159.8617 C.ar    1  UNL1        0.0990
     14 N         142.8639  137.7489  158.9901 N.ar    1  UNL1       -0.2393
     15 C         142.8456  138.8689  161.3342 C.ar    1  UNL1        0.0200
     16 C         144.0424  139.5721  161.9025 C.ar    1  UNL1        0.0025
     17 C         144.3208  139.5079  163.3752 C.ar    1  UNL1        0.0123
     18 C         143.4024  138.7405  164.2793 C.ar    1  UNL1        0.0682
     19 CL        143.6808  138.6763  165.7519 Cl      1  UNL1       -0.0814
     20 C         142.2055  138.0372  163.7110 C.ar    1  UNL1        0.0682
     21 CL        141.2871  137.2698  164.6152 Cl      1  UNL1       -0.0814
     22 C         141.9272  138.1014  162.2385 C.ar    1  UNL1        0.0138
     23 N         141.8352  135.5772  156.4274 N.am    1  UNL1       -0.2982
     24 C         142.8822  136.6289  156.6458 C.2     1  UNL1        0.2636
     25 O         144.2260  136.4966  155.9926 O.2     1  UNL1       -0.2685
     26 H         140.9532  135.6641  156.8562 H       1  UNL1        0.1498
     27 C         142.1320  134.3931  155.5557 C.3     1  UNL1        0.1068
     28 C         142.4587  133.0676  156.1770 C.3     1  UNL1        0.0901
     29 C         144.4642  133.1773  157.8250 C.3     1  UNL1        0.0859
     30 N         142.9947  133.0069  157.5766 N.3     1  UNL1       -0.2949
     31 H         142.5199  133.7384  158.1057 H       1  UNL1        0.1233
@<TRIPOS>BOND
     1    29    30    1
     2    30    28    1
     3    28    27    1
     4    27    23    1
     5    23    24   am
     6    24    25    2
     7    24     1    1
     8     1     2   ar
     9     2     3   ar
    10     3     4   ar
    11     4     5    1
    12     5     6    2
    13     6     7    1
    14     7     8    1
    15     7     9    1
    16     9    10    2
    17    10    11    1
    18    11    12    2
    19     4    13   ar
    20    13    15    1
    21    15    16   ar
    22    16    17   ar
    23    17    18   ar
    24    18    19    1
    25    18    20   ar
    26    20    21    1
    27    20    22   ar
    28    13    14   ar
    29    14     1   ar
    30    12     3    1
    31    22    15   ar
    32    12     6    1
    33    30    31    1
    34    23    26    1
@<TRIPOS>MOLECULE
*****
 31 34 0 0 0
SMALL
GASTEIGER

@<TRIPOS>ATOM
      1 C         140.2053  136.9562  155.1937 C.ar    1  UNL1        0.1345
      2 C         140.7097  135.5689  154.9272 C.ar    1  UNL1        0.0253
      3 C         141.8345  135.0095  155.7468 C.ar    1  UNL1        0.0219
      4 C         142.4549  135.8374  156.8330 C.ar    1  UNL1        0.0985
      5 N         143.5412  135.0243  157.4723 N.2     1  UNL1       -0.2478
      6 C         143.5922  133.6939  156.7813 C.2     1  UNL1        0.0627
      7 C         144.4629  132.4897  156.9854 C.3     1  UNL1        0.0622
      8 C         145.5177  132.4988  158.0518 C.3     1  UNL1        0.0110
      9 C         144.2787  131.2763  156.1230 C.2     1  UNL1       -0.0205
     10 C         143.2239  131.2672  155.0566 C.2     1  UNL1       -0.0042
     11 C         142.3533  132.4714  154.8525 C.2     1  UNL1        0.0009
     12 C         142.5374  133.6848  155.7149 C.2     1  UNL1        0.0154
     13 C         141.9505  137.2247  157.0995 C.ar    1  UNL1        0.0990
     14 N         140.8256  137.7841  156.2799 N.ar    1  UNL1       -0.2393
     15 C         142.5708  138.0526  158.1857 C.ar    1  UNL1        0.0200
     16 C         143.1964  139.3753  157.8559 C.ar    1  UNL1        0.0025
     17 C         143.8168  140.2032  158.9421 C.ar    1  UNL1        0.0123
     18 C         143.8115  139.7083  160.3581 C.ar    1  UNL1        0.0682
     19 CL        144.4319  140.5361  161.4442 Cl      1  UNL1       -0.0814
     20 C         143.1859  138.3854  160.6879 C.ar    1  UNL1        0.0682
     21 CL        143.1806  137.8905  162.1038 Cl      1  UNL1       -0.0814
     22 C         142.5656  137.5576  159.6017 C.ar    1  UNL1        0.0138
     23 N         137.6775  137.4825  154.9040 N.am    1  UNL1       -0.2982
     24 C         139.0804  137.5156  154.3740 C.2     1  UNL1        0.2636
     25 O         139.3585  138.1081  153.0243 O.2     1  UNL1       -0.2685
     26 H         137.4951  137.0936  155.7898 H       1  UNL1        0.1498
     27 C         136.5528  138.0419  154.0843 C.3     1  UNL1        0.1068
     28 C         135.8484  139.2890  154.5295 C.3     1  UNL1        0.0901
     29 C         133.6780  140.1700  155.6537 C.3     1  UNL1        0.0859
     30 N         134.8444  139.2268  155.6422 N.3     1  UNL1       -0.2949
     31 H         134.4592  138.2823  155.6388 H       1  UNL1        0.1233
@<TRIPOS>BOND
     1    29    30    1
     2    30    28    1
     3    28    27    1
     4    27    23    1
     5    23    24   am
     6    24    25    2
     7    24     1    1
     8     1     2   ar
     9     2     3   ar
    10     3     4   ar
    11     4     5    1
    12     5     6    2
    13     6     7    1
    14     7     8    1
    15     7     9    1
    16     9    10    2
    17    10    11    1
    18    11    12    2
    19     4    13   ar
    20    13    15    1
    21    15    16   ar
    22    16    17   ar
    23    17    18   ar
    24    18    19    1
    25    18    20   ar
    26    20    21    1
    27    20    22   ar
    28    13    14   ar
    29    14     1   ar
    30    12     3    1
    31    22    15   ar
    32    12     6    1
    33    30    31    1
    34    23    26    1
@<TRIPOS>MOLECULE
*****
 31 34 0 0 0
SMALL
GASTEIGER

@<TRIPOS>ATOM
      1 C         139.6342  139.3374  157.8984 C.ar    1  UNL1        0.1345
      2 C         139.3233  139.2756  159.3645 C.ar    1  UNL1        0.0253
      3 C         138.9399  140.5235  160.1032 C.ar    1  UNL1        0.0219
      4 C         138.8673  141.8333  159.3756 C.ar    1  UNL1        0.0985
      5 N         138.4636  142.8893  160.3614 N.2     1  UNL1       -0.2478
      6 C         138.2867  142.2322  161.6982 C.2     1  UNL1        0.0627
      7 C         137.8956  142.7764  163.0402 C.3     1  UNL1        0.0622
      8 C         137.6013  144.2385  163.1998 C.3     1  UNL1        0.0110
      9 C         137.7989  141.8584  164.2225 C.2     1  UNL1       -0.0205
     10 C         138.0933  140.3963  164.0629 C.2     1  UNL1       -0.0042
     11 C         138.4844  139.8521  162.7209 C.2     1  UNL1        0.0009
     12 C         138.5811  140.7701  161.5386 C.2     1  UNL1        0.0154
     13 C         139.1781  141.8951  157.9095 C.ar    1  UNL1        0.0990
     14 N         139.5616  140.6471  157.1708 N.ar    1  UNL1       -0.2393
     15 C         139.1055  143.2048  157.1819 C.ar    1  UNL1        0.0200
     16 C         140.0525  144.3128  157.5359 C.ar    1  UNL1        0.0025
     17 C         139.9798  145.6226  156.8083 C.ar    1  UNL1        0.0123
     18 C         138.9602  145.8242  155.7268 C.ar    1  UNL1        0.0682
     19 CL        138.8876  147.1340  154.9993 Cl      1  UNL1       -0.0814
     20 C         138.0132  144.7161  155.3728 C.ar    1  UNL1        0.0682
     21 CL        136.9936  144.9177  154.2913 Cl      1  UNL1       -0.0814
     22 C         138.0859  143.4065  156.1003 C.ar    1  UNL1        0.0138
     23 N         141.4314  137.5908  157.2129 N.am    1  UNL1       -0.2982
     24 C         140.0177  138.0894  157.1597 C.2     1  UNL1        0.2636
     25 O         138.9873  137.3400  156.3680 O.2     1  UNL1       -0.2685
     26 H         142.1076  138.0827  157.7326 H       1  UNL1        0.1498
     27 C         141.8148  136.3429  156.4743 C.3     1  UNL1        0.1068
     28 C         143.2016  136.1941  155.9224 C.3     1  UNL1        0.0901
     29 C         143.5766  134.0717  157.3734 C.3     1  UNL1        0.0859
     30 N         144.0239  134.9902  156.2750 N.3     1  UNL1       -0.2949
     31 H         144.0957  134.4246  155.4291 H       1  UNL1        0.1233
@<TRIPOS>BOND
     1    29    30    1
     2    30    28    1
     3    28    27    1
     4    27    23    1
     5    23    24   am
     6    24    25    2
     7    24     1    1
     8     1     2   ar
     9     2     3   ar
    10     3     4   ar
    11     4     5    1
    12     5     6    2
    13     6     7    1
    14     7     8    1
    15     7     9    1
    16     9    10    2
    17    10    11    1
    18    11    12    2
    19     4    13   ar
    20    13    15    1
    21    15    16   ar
    22    16    17   ar
    23    17    18   ar
    24    18    19    1
    25    18    20   ar
    26    20    21    1
    27    20    22   ar
    28    13    14   ar
    29    14     1   ar
    30    12     3    1
    31    22    15   ar
    32    12     6    1
    33    30    31    1
    34    23    26    1
@<TRIPOS>MOLECULE
*****
 31 34 0 0 0
SMALL
GASTEIGER

@<TRIPOS>ATOM
      1 C         138.5105  140.8000  157.7699 C.ar    1  UNL1        0.1345
      2 C         138.2507  140.0620  159.0497 C.ar    1  UNL1        0.0253
      3 C         139.3940  139.6913  159.9471 C.ar    1  UNL1        0.0219
      4 C         140.7972  140.0585  159.5646 C.ar    1  UNL1        0.0985
      5 N         141.7159  139.5632  160.6419 N.2     1  UNL1       -0.2478
      6 C         140.8806  138.8898  161.6901 C.2     1  UNL1        0.0627
      7 C         141.2413  138.2149  162.9802 C.3     1  UNL1        0.0622
      8 C         142.6763  138.1357  163.4096 C.3     1  UNL1        0.0110
      9 C         140.1669  137.6191  163.8408 C.2     1  UNL1       -0.0205
     10 C         138.7319  137.6982  163.4114 C.2     1  UNL1       -0.0042
     11 C         138.3712  138.3732  162.1213 C.2     1  UNL1        0.0009
     12 C         139.4456  138.9690  161.2607 C.2     1  UNL1        0.0154
     13 C         141.0570  140.7965  158.2847 C.ar    1  UNL1        0.0990
     14 N         139.9136  141.1672  157.3874 N.ar    1  UNL1       -0.2393
     15 C         142.4601  141.1637  157.9023 C.ar    1  UNL1        0.0200
     16 C         143.0999  142.3890  158.4845 C.ar    1  UNL1        0.0025
     17 C         144.5031  142.7562  158.1020 C.ar    1  UNL1        0.0123
     18 C         145.2665  141.8980  157.1372 C.ar    1  UNL1        0.0682
     19 CL        146.6696  142.2653  156.7547 Cl      1  UNL1       -0.0814
     20 C         144.6266  140.6726  156.5549 C.ar    1  UNL1        0.0682
     21 CL        145.3900  139.8145  155.5901 Cl      1  UNL1       -0.0814
     22 C         143.2235  140.3055  156.9374 C.ar    1  UNL1        0.0138
     23 N         136.1108  140.3511  156.8809 N.am    1  UNL1       -0.2982
     24 C         137.3670  141.1707  156.8725 C.2     1  UNL1        0.2636
     25 O         137.4800  142.3611  155.9668 O.2     1  UNL1       -0.2685
     26 H         136.0367  139.5698  157.4753 H       1  UNL1        0.1498
     27 C         134.9674  140.7218  155.9835 C.3     1  UNL1        0.1068
     28 C         133.6629  139.9892  156.0894 C.3     1  UNL1        0.0901
     29 C         133.0145  138.5029  158.1193 C.3     1  UNL1        0.0859
     30 N         133.6099  138.6435  156.7496 N.3     1  UNL1       -0.2949
     31 H         133.0746  138.0333  156.1319 H       1  UNL1        0.1233
@<TRIPOS>BOND
     1    29    30    1
     2    30    28    1
     3    28    27    1
     4    27    23    1
     5    23    24   am
     6    24    25    2
     7    24     1    1
     8     1     2   ar
     9     2     3   ar
    10     3     4   ar
    11     4     5    1
    12     5     6    2
    13     6     7    1
    14     7     8    1
    15     7     9    1
    16     9    10    2
    17    10    11    1
    18    11    12    2
    19     4    13   ar
    20    13    15    1
    21    15    16   ar
    22    16    17   ar
    23    17    18   ar
    24    18    19    1
    25    18    20   ar
    26    20    21    1
    27    20    22   ar
    28    13    14   ar
    29    14     1   ar
    30    12     3    1
    31    22    15   ar
    32    12     6    1
    33    30    31    1
    34    23    26    1
@<TRIPOS>MOLECULE
*****
 31 34 0 0 0
SMALL
GASTEIGER

@<TRIPOS>ATOM
      1 C         142.6906  138.5322  157.7283 C.ar    1  UNL1        0.1345
      2 C         142.7269  139.9875  157.3669 C.ar    1  UNL1        0.0253
      3 C         142.1208  141.0044  158.2880 C.ar    1  UNL1        0.0219
      4 C         141.4785  140.5659  159.5707 C.ar    1  UNL1        0.0985
      5 N         140.9671  141.7879  160.2744 N.2     1  UNL1       -0.2478
      6 C         141.2934  142.9817  159.4266 C.2     1  UNL1        0.0627
      7 C         141.0333  144.4470  159.6140 C.3     1  UNL1        0.0622
      8 C         140.3203  144.9312  160.8416 C.3     1  UNL1        0.0110
      9 C         141.4863  145.4280  158.5737 C.2     1  UNL1       -0.0205
     10 C         142.1993  144.9438  157.3460 C.2     1  UNL1       -0.0042
     11 C         142.4594  143.4785  157.1587 C.2     1  UNL1        0.0009
     12 C         142.0064  142.4974  158.1990 C.2     1  UNL1        0.0154
     13 C         141.4423  139.1106  159.9321 C.ar    1  UNL1        0.0990
     14 N         142.0483  138.0937  159.0110 N.ar    1  UNL1       -0.2393
     15 C         140.7999  138.6721  161.2148 C.ar    1  UNL1        0.0200
     16 C         139.3185  138.4446  161.2722 C.ar    1  UNL1        0.0025
     17 C         138.6762  138.0061  162.5549 C.ar    1  UNL1        0.0123
     18 C         139.5155  137.7951  163.7801 C.ar    1  UNL1        0.0682
     19 CL        138.8732  137.3566  165.0628 Cl      1  UNL1       -0.0814
     20 C         140.9970  138.0226  163.7227 C.ar    1  UNL1        0.0682
     21 CL        141.8363  137.8116  164.9479 Cl      1  UNL1       -0.0814
     22 C         141.6392  138.4610  162.4401 C.ar    1  UNL1        0.0138
     23 N         142.9021  136.0724  156.9189 N.am    1  UNL1       -0.2982
     24 C         143.2967  137.5152  156.8071 C.2     1  UNL1        0.2636
     25 O         144.2975  137.9413  155.7741 O.2     1  UNL1       -0.2685
     26 H         142.2453  135.7928  157.5969 H       1  UNL1        0.1498
     27 C         143.5082  135.0556  155.9976 C.3     1  UNL1        0.1068
     28 C         143.7662  133.6609  156.4856 C.3     1  UNL1        0.0901
     29 C         145.3608  132.1791  157.9040 C.3     1  UNL1        0.0859
     30 N         144.5649  133.4394  157.7358 N.3     1  UNL1       -0.2949
     31 H         145.2235  134.2151  157.8057 H       1  UNL1        0.1233
@<TRIPOS>BOND
     1    29    30    1
     2    30    28    1
     3    28    27    1
     4    27    23    1
     5    23    24   am
     6    24    25    2
     7    24     1    1
     8     1     2   ar
     9     2     3   ar
    10     3     4   ar
    11     4     5    1
    12     5     6    2
    13     6     7    1
    14     7     8    1
    15     7     9    1
    16     9    10    2
    17    10    11    1
    18    11    12    2
    19     4    13   ar
    20    13    15    1
    21    15    16   ar
    22    16    17   ar
    23    17    18   ar
    24    18    19    1
    25    18    20   ar
    26    20    21    1
    27    20    22   ar
    28    13    14   ar
    29    14     1   ar
    30    12     3    1
    31    22    15   ar
    32    12     6    1
    33    30    31    1
    34    23    26    1
@<TRIPOS>MOLECULE
*****
 31 34 0 0 0
SMALL
GASTEIGER

@<TRIPOS>ATOM
      1 C         138.1493  141.8946  158.0040 C.ar    1  UNL1        0.1345
      2 C         139.1102  140.7563  157.8281 C.ar    1  UNL1        0.0253
      3 C         140.0038  140.3472  158.9613 C.ar    1  UNL1        0.0219
      4 C         139.9365  141.0765  160.2703 C.ar    1  UNL1        0.0985
      5 N         140.9341  140.4522  161.2005 N.2     1  UNL1       -0.2478
      6 C         141.6178  139.3371  160.4663 C.2     1  UNL1        0.0627
      7 C         142.6897  138.3724  160.8792 C.3     1  UNL1        0.0622
      8 C         143.2646  138.4373  162.2631 C.3     1  UNL1        0.0110
      9 C         143.1866  137.3429  159.9081 C.2     1  UNL1       -0.0205
     10 C         142.6117  137.2780  158.5242 C.2     1  UNL1       -0.0042
     11 C         141.5398  138.2426  158.1113 C.2     1  UNL1        0.0009
     12 C         141.0429  139.2722  159.0824 C.2     1  UNL1        0.0154
     13 C         138.9756  142.2148  160.4462 C.ar    1  UNL1        0.0990
     14 N         138.0820  142.6239  159.3130 N.ar    1  UNL1       -0.2393
     15 C         138.9084  142.9441  161.7552 C.ar    1  UNL1        0.0200
     16 C         137.6629  142.8764  162.5884 C.ar    1  UNL1        0.0025
     17 C         137.5957  143.6057  163.8975 C.ar    1  UNL1        0.0123
     18 C         138.7740  144.4028  164.3733 C.ar    1  UNL1        0.0682
     19 CL        138.7067  145.1321  165.6824 Cl      1  UNL1       -0.0814
     20 C         140.0194  144.4705  163.5401 C.ar    1  UNL1        0.0682
     21 CL        141.1977  145.2676  164.0160 Cl      1  UNL1       -0.0814
     22 C         140.0866  143.7412  162.2312 C.ar    1  UNL1        0.0138
     23 N         136.1499  141.3948  156.4219 N.am    1  UNL1       -0.2982
     24 C         137.2556  142.3036  156.8707 C.2     1  UNL1        0.2636
     25 O         137.4678  143.6215  156.1865 O.2     1  UNL1       -0.2685
     26 H         136.0107  140.5299  156.8711 H       1  UNL1        0.1498
     27 C         135.2563  141.8038  155.2887 C.3     1  UNL1        0.1068
     28 C         133.8512  141.2841  155.2164 C.3     1  UNL1        0.0901
     29 C         132.9959  139.2699  156.6171 C.3     1  UNL1        0.0859
     30 N         133.5876  139.8135  155.3504 N.3     1  UNL1       -0.2949
     31 H         132.9514  139.5584  154.5950 H       1  UNL1        0.1233
@<TRIPOS>BOND
     1    29    30    1
     2    30    28    1
     3    28    27    1
     4    27    23    1
     5    23    24   am
     6    24    25    2
     7    24     1    1
     8     1     2   ar
     9     2     3   ar
    10     3     4   ar
    11     4     5    1
    12     5     6    2
    13     6     7    1
    14     7     8    1
    15     7     9    1
    16     9    10    2
    17    10    11    1
    18    11    12    2
    19     4    13   ar
    20    13    15    1
    21    15    16   ar
    22    16    17   ar
    23    17    18   ar
    24    18    19    1
    25    18    20   ar
    26    20    21    1
    27    20    22   ar
    28    13    14   ar
    29    14     1   ar
    30    12     3    1
    31    22    15   ar
    32    12     6    1
    33    30    31    1
    34    23    26    1
@<TRIPOS>MOLECULE
*****
 31 34 0 0 0
SMALL
GASTEIGER

@<TRIPOS>ATOM
      1 C         140.0930  144.5095  158.3192 C.ar    1  UNL1        0.1345
      2 C         139.2251  143.3855  157.8360 C.ar    1  UNL1        0.0253
      3 C         138.4628  143.5252  156.5518 C.ar    1  UNL1        0.0219
      4 C         138.5683  144.7890  155.7507 C.ar    1  UNL1        0.0985
      5 N         137.7058  144.6390  154.5327 N.2     1  UNL1       -0.2478
      6 C         137.0671  143.2826  154.5810 C.2     1  UNL1        0.0627
      7 C         136.1201  142.5855  153.6500 C.3     1  UNL1        0.0622
      8 C         135.6522  143.2738  152.4021 C.3     1  UNL1        0.0110
      9 C         135.6408  141.1999  153.9668 C.2     1  UNL1       -0.0205
     10 C         136.1087  140.5115  155.2147 C.2     1  UNL1       -0.0042
     11 C         137.0557  141.2087  156.1458 C.2     1  UNL1        0.0009
     12 C         137.5350  142.5943  155.8289 C.2     1  UNL1        0.0154
     13 C         139.4362  145.9130  156.2339 C.ar    1  UNL1        0.0990
     14 N         140.1986  145.7732  157.5181 N.ar    1  UNL1       -0.2393
     15 C         139.5418  147.1767  155.4328 C.ar    1  UNL1        0.0200
     16 C         140.2949  147.1817  154.1356 C.ar    1  UNL1        0.0025
     17 C         140.4004  148.4456  153.3345 C.ar    1  UNL1        0.0123
     18 C         139.7529  149.7043  153.8306 C.ar    1  UNL1        0.0682
     19 CL        139.8585  150.9681  153.0295 Cl      1  UNL1       -0.0814
     20 C         138.9998  149.6993  155.1279 C.ar    1  UNL1        0.0682
     21 CL        138.3523  150.9581  155.6241 Cl      1  UNL1       -0.0814
     22 C         138.8943  148.4356  155.9289 C.ar    1  UNL1        0.0138
     23 N         140.1512  143.9173  160.8483 N.am    1  UNL1       -0.2982
     24 C         140.8554  144.3697  159.6035 C.2     1  UNL1        0.2636
     25 O         142.3219  144.6823  159.6429 O.2     1  UNL1       -0.2685
     26 H         139.1886  143.7121  160.8224 H       1  UNL1        0.1498
     27 C         140.9135  143.7775  162.1325 C.3     1  UNL1        0.1068
     28 C         141.0059  144.9367  163.0798 C.3     1  UNL1        0.0901
     29 C         139.0015  144.6480  164.7075 C.3     1  UNL1        0.0859
     30 N         139.7644  145.4819  163.7212 N.3     1  UNL1       -0.2949
     31 H         140.0349  146.3376  164.2061 H       1  UNL1        0.1233
@<TRIPOS>BOND
     1    29    30    1
     2    30    28    1
     3    28    27    1
     4    27    23    1
     5    23    24   am
     6    24    25    2
     7    24     1    1
     8     1     2   ar
     9     2     3   ar
    10     3     4   ar
    11     4     5    1
    12     5     6    2
    13     6     7    1
    14     7     8    1
    15     7     9    1
    16     9    10    2
    17    10    11    1
    18    11    12    2
    19     4    13   ar
    20    13    15    1
    21    15    16   ar
    22    16    17   ar
    23    17    18   ar
    24    18    19    1
    25    18    20   ar
    26    20    21    1
    27    20    22   ar
    28    13    14   ar
    29    14     1   ar
    30    12     3    1
    31    22    15   ar
    32    12     6    1
    33    30    31    1
    34    23    26    1
