@<TRIPOS>MOLECULE
*****
 32 36 0 0 0
SMALL
GASTEIGER

@<TRIPOS>ATOM
      1 C         141.0407  141.0546  169.2743 C.ar    1  UNL1        0.1384
      2 C         141.2337  142.4069  168.6547 C.ar    1  UNL1        0.0366
      3 C         140.5983  142.7242  167.3335 C.ar    1  UNL1       -0.0014
      4 C         139.7699  141.6891  166.6319 C.ar    1  UNL1       -0.0252
      5 C         139.5768  140.3368  167.2514 C.ar    1  UNL1       -0.0231
      6 C         140.2122  140.0195  168.5727 C.ar    1  UNL1        0.0323
      7 C         138.7484  139.3017  166.5497 C.3     1  UNL1        0.0261
      8 C         138.1130  139.6190  165.2285 C.3     1  UNL1        0.0050
      9 C         138.3061  140.9714  164.6090 C.3     1  UNL1        0.0058
     10 C         139.1345  142.0065  165.3107 C.3     1  UNL1        0.0347
     11 C         139.9317  143.1366  165.8914 C.3     1  UNL1        0.0227
     12 C         139.8542  144.2947  164.9412 C.3     1  UNL1        0.0725
     13 N         139.0090  143.8803  163.7733 N.3     1  UNL1       -0.2724
     14 C         138.5643  142.4661  164.0016 C.3     1  UNL1        0.0761
     15 C         143.1528  140.4874  170.6768 C.3     1  UNL1        0.2525
     16 O         141.6760  140.7372  170.5955 O.3     1  UNL1       -0.4714
     17 C         138.6685  144.7309  162.5856 C.3     1  UNL1        0.0730
     18 C         139.6379  145.7693  162.1042 C.3     1  UNL1        0.0294
     19 C         140.2503  145.6486  160.7402 C.3     1  UNL1        0.0666
     20 S         141.3616  144.6699  160.5010 S.3     1  UNL1       -0.0756
     21 C         141.9996  143.9620  161.6593 C.ar    1  UNL1        0.1933
     22 N         142.9077  144.5818  162.6797 N.ar    1  UNL1       -0.1220
     23 N         143.3109  143.5128  163.6516 N.ar    1  UNL1       -0.1250
     24 C         142.6521  142.2323  163.2319 C.ar    1  UNL1        0.2029
     25 N         141.8417  142.5099  162.0006 N.ar    1  UNL1       -0.2860
     26 C         141.0179  141.5108  161.2434 C.3     1  UNL1        0.1341
     27 C         142.7810  140.9068  163.9223 C.ar    1  UNL1        0.1964
     28 O         141.6480  140.0256  164.3575 O.2     1  UNL1       -0.4283
     29 C         142.2323  138.8041  165.0028 C.ar    1  UNL1        0.2849
     30 N         143.7265  138.9305  164.9665 N.ar    1  UNL1       -0.2085
     31 C         144.0656  140.2301  164.2987 C.ar    1  UNL1        0.1001
     32 C         145.4469  140.7599  164.0508 C.3     1  UNL1        0.0556
@<TRIPOS>BOND
     1    15    16    1
     2    16     1    1
     3     1     2   ar
     4     2     3   ar
     5     3     4   ar
     6     4     5   ar
     7     5     6   ar
     8     5     7    1
     9     7     8    1
    10     8     9    1
    11     9    10    1
    12    10    11    1
    13    11    12    1
    14    12    13    1
    15    13    17    1
    16    17    18    1
    17    18    19    1
    18    19    20    1
    19    20    21    1
    20    21    22   ar
    21    22    23   ar
    22    23    24   ar
    23    24    27    1
    24    27    28   ar
    25    28    29   ar
    26    29    30   ar
    27    30    31   ar
    28    31    32    1
    29    24    25   ar
    30    25    26    1
    31    13    14    1
    32     6     1   ar
    33    14    10    1
    34    10     4    1
    35    25    21   ar
    36    31    27   ar
@<TRIPOS>MOLECULE
*****
 32 36 0 0 0
SMALL
GASTEIGER

@<TRIPOS>ATOM
      1 C         141.3257  141.3993  168.0881 C.ar    1  UNL1        0.1384
      2 C         140.1102  141.9488  167.4020 C.ar    1  UNL1        0.0366
      3 C         140.2619  142.8095  166.1830 C.ar    1  UNL1       -0.0014
      4 C         141.6290  143.1208  165.6500 C.ar    1  UNL1       -0.0252
      5 C         142.8445  142.5714  166.3360 C.ar    1  UNL1       -0.0231
      6 C         142.6928  141.7106  167.5551 C.ar    1  UNL1        0.0323
      7 C         144.2116  142.8827  165.8030 C.3     1  UNL1        0.0261
      8 C         144.3632  143.7434  164.5839 C.3     1  UNL1        0.0050
      9 C         143.1476  144.2928  163.8979 C.3     1  UNL1        0.0058
     10 C         141.7805  143.9815  164.4309 C.3     1  UNL1        0.0347
     11 C         140.3567  143.7570  164.8460 C.3     1  UNL1        0.0227
     12 C         139.4717  144.4887  163.8809 C.3     1  UNL1        0.0725
     13 N         140.3485  145.1654  162.8694 N.3     1  UNL1       -0.2724
     14 C         141.7755  144.8519  163.2092 C.3     1  UNL1        0.0761
     15 C         142.1185  139.3969  169.5414 C.3     1  UNL1        0.2525
     16 O         141.1741  140.5386  169.3072 O.3     1  UNL1       -0.4714
     17 C         139.8805  146.0076  161.7197 C.3     1  UNL1        0.0730
     18 C         140.3668  145.7175  160.3307 C.3     1  UNL1        0.0294
     19 C         139.8516  144.5187  159.5907 C.3     1  UNL1        0.0666
     20 S         140.2126  143.1387  160.0547 S.3     1  UNL1       -0.0756
     21 C         139.3126  142.4083  161.0068 C.ar    1  UNL1        0.1933
     22 N         137.8217  142.5488  161.0945 N.ar    1  UNL1       -0.1220
     23 N         137.3332  141.6365  162.1803 N.ar    1  UNL1       -0.1250
     24 C         138.5221  140.9321  162.7637 C.ar    1  UNL1        0.2029
     25 N         139.7454  141.4091  162.0385 N.ar    1  UNL1       -0.2860
     26 C         141.1542  140.9650  162.2991 C.3     1  UNL1        0.1341
     27 C         138.4929  139.9272  163.8770 C.ar    1  UNL1        0.1964
     28 O         138.0857  140.1946  165.2956 O.2     1  UNL1       -0.4283
     29 C         138.2068  138.9111  166.0624 C.ar    1  UNL1        0.2849
     30 N         138.6888  137.8505  165.1176 N.ar    1  UNL1       -0.2085
     31 C         138.8656  138.4785  163.7669 C.ar    1  UNL1        0.1001
     32 C         139.3331  137.7802  162.5243 C.3     1  UNL1        0.0556
@<TRIPOS>BOND
     1    15    16    1
     2    16     1    1
     3     1     2   ar
     4     2     3   ar
     5     3     4   ar
     6     4     5   ar
     7     5     6   ar
     8     5     7    1
     9     7     8    1
    10     8     9    1
    11     9    10    1
    12    10    11    1
    13    11    12    1
    14    12    13    1
    15    13    17    1
    16    17    18    1
    17    18    19    1
    18    19    20    1
    19    20    21    1
    20    21    22   ar
    21    22    23   ar
    22    23    24   ar
    23    24    27    1
    24    27    28   ar
    25    28    29   ar
    26    29    30   ar
    27    30    31   ar
    28    31    32    1
    29    24    25   ar
    30    25    26    1
    31    13    14    1
    32     6     1   ar
    33    14    10    1
    34    10     4    1
    35    25    21   ar
    36    31    27   ar
@<TRIPOS>MOLECULE
*****
 32 36 0 0 0
SMALL
GASTEIGER

@<TRIPOS>ATOM
      1 C         140.9203  140.4480  169.3221 C.ar    1  UNL1        0.1384
      2 C         139.5878  140.4011  168.6349 C.ar    1  UNL1        0.0366
      3 C         139.4874  139.8938  167.2269 C.ar    1  UNL1       -0.0014
      4 C         140.7195  139.4334  166.5060 C.ar    1  UNL1       -0.0252
      5 C         142.0521  139.4802  167.1930 C.ar    1  UNL1       -0.0231
      6 C         142.1525  139.9875  168.6011 C.ar    1  UNL1        0.0323
      7 C         143.2843  139.0198  166.4720 C.3     1  UNL1        0.0261
      8 C         143.1838  138.5125  165.0640 C.3     1  UNL1        0.0050
      9 C         141.8512  138.4657  164.3770 C.3     1  UNL1        0.0058
     10 C         140.6191  138.9261  165.0979 C.3     1  UNL1        0.0347
     11 C         139.3072  139.3506  165.6885 C.3     1  UNL1        0.0227
     12 C         138.2418  139.1333  164.6552 C.3     1  UNL1        0.0725
     13 N         138.8952  138.5746  163.4260 N.3     1  UNL1       -0.2724
     14 C         140.3645  138.4465  163.6996 C.3     1  UNL1        0.0761
     15 C         141.9949  142.0450  171.0670 C.3     1  UNL1        0.2525
     16 O         141.0208  140.9552  170.7301 O.3     1  UNL1       -0.4714
     17 C         138.2012  138.2083  162.1477 C.3     1  UNL1        0.0730
     18 C         137.6587  139.2840  161.2540 C.3     1  UNL1        0.0294
     19 C         138.3860  139.6499  159.9941 C.3     1  UNL1        0.0666
     20 S         138.4197  141.0776  159.5353 S.3     1  UNL1       -0.0756
     21 C         138.9791  142.1409  160.4334 C.ar    1  UNL1        0.1933
     22 N         138.2418  143.3452  160.9394 N.ar    1  UNL1       -0.1220
     23 N         139.1811  144.1351  161.8019 N.ar    1  UNL1       -0.1250
     24 C         140.4988  143.4190  161.8289 C.ar    1  UNL1        0.2029
     25 N         140.3740  142.1865  160.9832 N.ar    1  UNL1       -0.2860
     26 C         141.4543  141.1768  160.7314 C.3     1  UNL1        0.1341
     27 C         141.7259  143.8582  162.5714 C.ar    1  UNL1        0.1964
     28 O         142.8660  144.6483  162.0008 O.2     1  UNL1       -0.4283
     29 C         143.8731  144.8629  163.0915 C.ar    1  UNL1        0.2849
     30 N         143.3553  144.2054  164.3363 N.ar    1  UNL1       -0.2085
     31 C         142.0282  143.5844  164.0148 C.ar    1  UNL1        0.1001
     32 C         141.1566  142.8233  164.9693 C.3     1  UNL1        0.0556
@<TRIPOS>BOND
     1    15    16    1
     2    16     1    1
     3     1     2   ar
     4     2     3   ar
     5     3     4   ar
     6     4     5   ar
     7     5     6   ar
     8     5     7    1
     9     7     8    1
    10     8     9    1
    11     9    10    1
    12    10    11    1
    13    11    12    1
    14    12    13    1
    15    13    17    1
    16    17    18    1
    17    18    19    1
    18    19    20    1
    19    20    21    1
    20    21    22   ar
    21    22    23   ar
    22    23    24   ar
    23    24    27    1
    24    27    28   ar
    25    28    29   ar
    26    29    30   ar
    27    30    31   ar
    28    31    32    1
    29    24    25   ar
    30    25    26    1
    31    13    14    1
    32     6     1   ar
    33    14    10    1
    34    10     4    1
    35    25    21   ar
    36    31    27   ar
@<TRIPOS>MOLECULE
*****
 32 36 0 0 0
SMALL
GASTEIGER

@<TRIPOS>ATOM
      1 C         141.4406  141.5344  168.9562 C.ar    1  UNL1        0.1384
      2 C         142.1929  141.4702  167.6601 C.ar    1  UNL1        0.0366
      3 C         141.6370  140.6863  166.5083 C.ar    1  UNL1       -0.0014
      4 C         140.3288  139.9667  166.6526 C.ar    1  UNL1       -0.0252
      5 C         139.5765  140.0309  167.9487 C.ar    1  UNL1       -0.0231
      6 C         140.1324  140.8148  169.1005 C.ar    1  UNL1        0.0323
      7 C         138.2683  139.3113  168.0930 C.3     1  UNL1        0.0261
      8 C         137.7125  138.5274  166.9412 C.3     1  UNL1        0.0050
      9 C         138.4648  138.4632  165.6451 C.3     1  UNL1        0.0058
     10 C         139.7730  139.1829  165.5008 C.3     1  UNL1        0.0347
     11 C         141.0858  139.8474  165.2096 C.3     1  UNL1        0.0227
     12 C         141.4687  139.5181  163.7972 C.3     1  UNL1        0.0725
     13 N         140.3926  138.6500  163.2155 N.3     1  UNL1       -0.2724
     14 C         139.3445  138.4429  164.2684 C.3     1  UNL1        0.0761
     15 C         143.4575  142.6547  170.1506 C.3     1  UNL1        0.2525
     16 O         141.9964  142.3183  170.1080 O.3     1  UNL1       -0.4714
     17 C         140.3687  138.0879  161.8250 C.3     1  UNL1        0.0730
     18 C         139.0744  138.0064  161.0712 C.3     1  UNL1        0.0294
     19 C         138.7143  139.0747  160.0815 C.3     1  UNL1        0.0666
     20 S         137.9242  140.2707  160.5234 S.3     1  UNL1       -0.0756
     21 C         138.4400  141.1436  161.6288 C.ar    1  UNL1        0.1933
     22 N         137.7523  141.4116  162.9346 N.ar    1  UNL1       -0.1220
     23 N         138.6214  142.3354  163.7353 N.ar    1  UNL1       -0.1250
     24 C         139.8464  142.6384  162.9243 C.ar    1  UNL1        0.2029
     25 N         139.7343  141.9019  161.6224 N.ar    1  UNL1       -0.2860
     26 C         140.7399  141.9203  160.5096 C.3     1  UNL1        0.1341
     27 C         140.9838  143.5228  163.3419 C.ar    1  UNL1        0.1964
     28 O         142.1818  143.1006  164.1396 O.2     1  UNL1       -0.4283
     29 C         143.0612  144.3014  164.3258 C.ar    1  UNL1        0.2849
     30 N         142.4066  145.4657  163.6433 N.ar    1  UNL1       -0.2085
     31 C         141.1226  144.9844  163.0352 C.ar    1  UNL1        0.1001
     32 C         140.1486  145.8185  162.2570 C.3     1  UNL1        0.0556
@<TRIPOS>BOND
     1    15    16    1
     2    16     1    1
     3     1     2   ar
     4     2     3   ar
     5     3     4   ar
     6     4     5   ar
     7     5     6   ar
     8     5     7    1
     9     7     8    1
    10     8     9    1
    11     9    10    1
    12    10    11    1
    13    11    12    1
    14    12    13    1
    15    13    17    1
    16    17    18    1
    17    18    19    1
    18    19    20    1
    19    20    21    1
    20    21    22   ar
    21    22    23   ar
    22    23    24   ar
    23    24    27    1
    24    27    28   ar
    25    28    29   ar
    26    29    30   ar
    27    30    31   ar
    28    31    32    1
    29    24    25   ar
    30    25    26    1
    31    13    14    1
    32     6     1   ar
    33    14    10    1
    34    10     4    1
    35    25    21   ar
    36    31    27   ar
@<TRIPOS>MOLECULE
*****
 32 36 0 0 0
SMALL
GASTEIGER

@<TRIPOS>ATOM
      1 C         140.3210  140.6364  168.5540 C.ar    1  UNL1        0.1384
      2 C         141.6810  140.7520  167.9319 C.ar    1  UNL1        0.0366
      3 C         141.9637  140.0865  166.6177 C.ar    1  UNL1       -0.0014
      4 C         140.8864  139.3054  165.9255 C.ar    1  UNL1       -0.0252
      5 C         139.5263  139.1898  166.5474 C.ar    1  UNL1       -0.0231
      6 C         139.2436  139.8553  167.8617 C.ar    1  UNL1        0.0323
      7 C         138.4490  138.4087  165.8552 C.3     1  UNL1        0.0261
      8 C         138.7317  137.7432  164.5410 C.3     1  UNL1        0.0050
      9 C         140.0918  137.8589  163.9190 C.3     1  UNL1        0.0058
     10 C         141.1691  138.6400  164.6113 C.3     1  UNL1        0.0347
     11 C         142.3397  139.3836  165.1829 C.3     1  UNL1        0.0227
     12 C         143.4914  139.2355  164.2333 C.3     1  UNL1        0.0725
     13 N         143.0326  138.4003  163.0749 N.3     1  UNL1       -0.2724
     14 C         141.5974  138.0322  163.3085 C.3     1  UNL1        0.0761
     15 C         140.2757  142.7741  170.0298 C.3     1  UNL1        0.2525
     16 O         140.0382  141.3019  169.8682 O.3     1  UNL1       -0.4714
     17 C         143.8633  138.0029  161.8908 C.3     1  UNL1        0.0730
     18 C         143.2001  137.6700  160.5872 C.3     1  UNL1        0.0294
     19 C         142.9131  138.7558  159.5928 C.3     1  UNL1        0.0666
     20 S         141.5067  138.9965  159.1302 S.3     1  UNL1       -0.0756
     21 C         140.5072  139.6174  160.0605 C.ar    1  UNL1        0.1933
     22 N         139.3016  138.9386  160.6400 N.ar    1  UNL1       -0.1220
     23 N         138.5871  139.9278  161.5123 N.ar    1  UNL1       -0.1250
     24 C         139.3511  141.2180  161.4720 C.ar    1  UNL1        0.2029
     25 N         140.5378  141.0262  160.5748 N.ar    1  UNL1       -0.2860
     26 C         141.5733  142.0613  160.2490 C.3     1  UNL1        0.1341
     27 C         138.9916  142.4787  162.2010 C.ar    1  UNL1        0.1964
     28 O         137.8183  143.3648  161.9041 O.2     1  UNL1       -0.4283
     29 C         137.8439  144.5084  162.8745 C.ar    1  UNL1        0.2849
     30 N         139.0330  144.3290  163.7710 N.ar    1  UNL1       -0.2085
     31 C         139.7423  143.0746  163.3548 C.ar    1  UNL1        0.1001
     32 C         140.9844  142.5145  163.9822 C.3     1  UNL1        0.0556
@<TRIPOS>BOND
     1    15    16    1
     2    16     1    1
     3     1     2   ar
     4     2     3   ar
     5     3     4   ar
     6     4     5   ar
     7     5     6   ar
     8     5     7    1
     9     7     8    1
    10     8     9    1
    11     9    10    1
    12    10    11    1
    13    11    12    1
    14    12    13    1
    15    13    17    1
    16    17    18    1
    17    18    19    1
    18    19    20    1
    19    20    21    1
    20    21    22   ar
    21    22    23   ar
    22    23    24   ar
    23    24    27    1
    24    27    28   ar
    25    28    29   ar
    26    29    30   ar
    27    30    31   ar
    28    31    32    1
    29    24    25   ar
    30    25    26    1
    31    13    14    1
    32     6     1   ar
    33    14    10    1
    34    10     4    1
    35    25    21   ar
    36    31    27   ar
@<TRIPOS>MOLECULE
*****
 32 36 0 0 0
SMALL
GASTEIGER

@<TRIPOS>ATOM
      1 C         140.8791  141.0753  169.1781 C.ar    1  UNL1        0.1384
      2 C         142.1511  141.0263  168.3846 C.ar    1  UNL1        0.0366
      3 C         142.1845  140.3155  167.0642 C.ar    1  UNL1       -0.0014
      4 C         140.9459  139.6536  166.5372 C.ar    1  UNL1       -0.0252
      5 C         139.6739  139.7025  167.3306 C.ar    1  UNL1       -0.0231
      6 C         139.6405  140.4134  168.6511 C.ar    1  UNL1        0.0323
      7 C         138.4353  139.0406  166.8036 C.3     1  UNL1        0.0261
      8 C         138.4687  138.3297  165.4832 C.3     1  UNL1        0.0050
      9 C         139.7408  138.2808  164.6898 C.3     1  UNL1        0.0058
     10 C         140.9794  138.9427  165.2168 C.3     1  UNL1        0.0347
     11 C         142.2899  139.5552  165.6133 C.3     1  UNL1        0.0227
     12 C         143.2847  139.2637  164.5291 C.3     1  UNL1        0.0725
     13 N         142.5889  138.4711  163.4625 N.3     1  UNL1       -0.2724
     14 C         141.1641  138.2727  163.8875 C.3     1  UNL1        0.0761
     15 C         139.8234  142.8548  170.7493 C.3     1  UNL1        0.2525
     16 O         140.8457  141.7861  170.4986 O.3     1  UNL1       -0.4714
     17 C         143.2090  137.9657  162.1936 C.3     1  UNL1        0.0730
     18 C         142.8963  138.6344  160.8879 C.3     1  UNL1        0.0294
     19 C         143.9134  139.5262  160.2395 C.3     1  UNL1        0.0666
     20 S         143.6415  140.9946  160.0976 S.3     1  UNL1       -0.0756
     21 C         142.9670  141.7431  161.2088 C.ar    1  UNL1        0.1933
     22 N         143.6346  142.2904  162.4355 N.ar    1  UNL1       -0.1220
     23 N         142.5866  142.9612  163.2732 N.ar    1  UNL1       -0.1250
     24 C         141.2714  142.8286  162.5643 C.ar    1  UNL1        0.2029
     25 N         141.5065  142.0757  161.2884 N.ar    1  UNL1       -0.2860
     26 C         140.4642  141.7182  160.2707 C.3     1  UNL1        0.1341
     27 C         139.9526  143.3562  163.0465 C.ar    1  UNL1        0.1964
     28 O         138.8291  143.8451  162.1814 O.2     1  UNL1       -0.4283
     29 C         137.7080  144.2785  163.0787 C.ar    1  UNL1        0.2849
     30 N         138.1387  144.0574  164.4984 N.ar    1  UNL1       -0.2085
     31 C         139.5260  143.4873  164.4785 C.ar    1  UNL1        0.1001
     32 C         140.3431  143.1140  165.6797 C.3     1  UNL1        0.0556
@<TRIPOS>BOND
     1    15    16    1
     2    16     1    1
     3     1     2   ar
     4     2     3   ar
     5     3     4   ar
     6     4     5   ar
     7     5     6   ar
     8     5     7    1
     9     7     8    1
    10     8     9    1
    11     9    10    1
    12    10    11    1
    13    11    12    1
    14    12    13    1
    15    13    17    1
    16    17    18    1
    17    18    19    1
    18    19    20    1
    19    20    21    1
    20    21    22   ar
    21    22    23   ar
    22    23    24   ar
    23    24    27    1
    24    27    28   ar
    25    28    29   ar
    26    29    30   ar
    27    30    31   ar
    28    31    32    1
    29    24    25   ar
    30    25    26    1
    31    13    14    1
    32     6     1   ar
    33    14    10    1
    34    10     4    1
    35    25    21   ar
    36    31    27   ar
@<TRIPOS>MOLECULE
*****
 32 36 0 0 0
SMALL
GASTEIGER

@<TRIPOS>ATOM
      1 C         141.3966  141.2008  169.1844 C.ar    1  UNL1        0.1384
      2 C         140.0806  141.3253  168.4754 C.ar    1  UNL1        0.0366
      3 C         139.8469  140.5845  167.1922 C.ar    1  UNL1       -0.0014
      4 C         140.9292  139.7192  166.6179 C.ar    1  UNL1       -0.0252
      5 C         142.2453  139.5946  167.3268 C.ar    1  UNL1       -0.0231
      6 C         142.4789  140.3355  168.6101 C.ar    1  UNL1        0.0323
      7 C         143.3276  138.7294  166.7525 C.3     1  UNL1        0.0261
      8 C         143.0939  137.9886  165.4693 C.3     1  UNL1        0.0050
      9 C         141.7778  138.1131  164.7604 C.3     1  UNL1        0.0058
     10 C         140.6955  138.9784  165.3347 C.3     1  UNL1        0.0347
     11 C         139.5256  139.8018  165.7857 C.3     1  UNL1        0.0227
     12 C         138.4254  139.6336  164.7800 C.3     1  UNL1        0.0725
     13 N         138.9153  138.7063  163.7076 N.3     1  UNL1       -0.2724
     14 C         140.3184  138.3014  164.0504 C.3     1  UNL1        0.0761
     15 C         142.5183  143.1504  170.4847 C.3     1  UNL1        0.2525
     16 O         141.6303  141.9416  170.4676 O.3     1  UNL1       -0.4714
     17 C         138.1386  138.2621  162.5037 C.3     1  UNL1        0.0730
     18 C         138.4334  138.8580  161.1592 C.3     1  UNL1        0.0294
     19 C         139.7028  138.5027  160.4432 C.3     1  UNL1        0.0666
     20 S         140.4822  139.5652  159.7265 S.3     1  UNL1       -0.0756
     21 C         141.7041  140.1573  160.3639 C.ar    1  UNL1        0.1933
     22 N         143.1232  139.9187  159.9403 N.ar    1  UNL1       -0.1220
     23 N         144.0175  140.7060  160.8515 N.ar    1  UNL1       -0.1250
     24 C         143.1513  141.4313  161.8382 C.ar    1  UNL1        0.2029
     25 N         141.7216  141.0922  161.5368 N.ar    1  UNL1       -0.2860
     26 C         140.5201  141.5990  162.2783 C.3     1  UNL1        0.1341
     27 C         143.6307  142.3368  162.9338 C.ar    1  UNL1        0.1964
     28 O         143.2039  143.7579  163.1531 O.2     1  UNL1       -0.4283
     29 C         143.9304  144.2795  164.3573 C.ar    1  UNL1        0.2849
     30 N         144.8062  143.1806  164.8823 N.ar    1  UNL1       -0.2085
     31 C         144.6209  141.9799  164.0024 C.ar    1  UNL1        0.1001
     32 C         145.3056  140.6551  164.1632 C.3     1  UNL1        0.0556
@<TRIPOS>BOND
     1    15    16    1
     2    16     1    1
     3     1     2   ar
     4     2     3   ar
     5     3     4   ar
     6     4     5   ar
     7     5     6   ar
     8     5     7    1
     9     7     8    1
    10     8     9    1
    11     9    10    1
    12    10    11    1
    13    11    12    1
    14    12    13    1
    15    13    17    1
    16    17    18    1
    17    18    19    1
    18    19    20    1
    19    20    21    1
    20    21    22   ar
    21    22    23   ar
    22    23    24   ar
    23    24    27    1
    24    27    28   ar
    25    28    29   ar
    26    29    30   ar
    27    30    31   ar
    28    31    32    1
    29    24    25   ar
    30    25    26    1
    31    13    14    1
    32     6     1   ar
    33    14    10    1
    34    10     4    1
    35    25    21   ar
    36    31    27   ar
@<TRIPOS>MOLECULE
*****
 32 36 0 0 0
SMALL
GASTEIGER

@<TRIPOS>ATOM
      1 C         141.4544  141.1973  168.1417 C.ar    1  UNL1        0.1384
      2 C         141.2062  139.9331  167.3734 C.ar    1  UNL1        0.0366
      3 C         141.9257  139.6878  166.0804 C.ar    1  UNL1       -0.0014
      4 C         142.8934  140.7066  165.5555 C.ar    1  UNL1       -0.0252
      5 C         143.1416  141.9709  166.3237 C.ar    1  UNL1       -0.0231
      6 C         142.4220  142.2162  167.6168 C.ar    1  UNL1        0.0323
      7 C         144.1093  142.9897  165.7987 C.3     1  UNL1        0.0261
      8 C         144.8287  142.7443  164.5056 C.3     1  UNL1        0.0050
      9 C         144.5805  141.4801  163.7375 C.3     1  UNL1        0.0058
     10 C         143.6129  140.4612  164.2624 C.3     1  UNL1        0.0347
     11 C         142.6789  139.3569  164.6600 C.3     1  UNL1        0.0227
     12 C         142.7439  138.2925  163.6050 C.3     1  UNL1        0.0725
     13 N         143.7180  138.7391  162.5554 N.3     1  UNL1       -0.2724
     14 C         144.2551  140.0795  162.9617 C.3     1  UNL1        0.0761
     15 C         140.3200  142.8345  169.8098 C.3     1  UNL1        0.2525
     16 O         140.7349  141.4427  169.4348 O.3     1  UNL1       -0.4714
     17 C         144.0898  137.9788  161.3170 C.3     1  UNL1        0.0730
     18 C         143.0182  137.4774  160.3948 C.3     1  UNL1        0.0294
     19 C         142.2436  138.4444  159.5491 C.3     1  UNL1        0.0666
     20 S         140.7921  138.6937  159.8335 S.3     1  UNL1       -0.0756
     21 C         140.3916  139.5250  161.0161 C.ar    1  UNL1        0.1933
     22 N         139.5542  139.0666  162.1731 N.ar    1  UNL1       -0.1220
     23 N         139.4033  140.2190  163.1214 N.ar    1  UNL1       -0.1250
     24 C         140.1476  141.3896  162.5506 C.ar    1  UNL1        0.2029
     25 N         140.7583  140.9606  161.2495 N.ar    1  UNL1       -0.2860
     26 C         141.5899  141.8170  160.3411 C.3     1  UNL1        0.1341
     27 C         140.2611  142.7501  163.1718 C.ar    1  UNL1        0.1964
     28 O         141.5376  143.4582  163.5165 O.2     1  UNL1       -0.4283
     29 C         141.1835  144.7872  164.1152 C.ar    1  UNL1        0.2849
     30 N         139.6880  144.9004  164.1404 N.ar    1  UNL1       -0.2085
     31 C         139.1179  143.6414  163.5573 C.ar    1  UNL1        0.1001
     32 C         137.6605  143.3287  163.3894 C.3     1  UNL1        0.0556
@<TRIPOS>BOND
     1    15    16    1
     2    16     1    1
     3     1     2   ar
     4     2     3   ar
     5     3     4   ar
     6     4     5   ar
     7     5     6   ar
     8     5     7    1
     9     7     8    1
    10     8     9    1
    11     9    10    1
    12    10    11    1
    13    11    12    1
    14    12    13    1
    15    13    17    1
    16    17    18    1
    17    18    19    1
    18    19    20    1
    19    20    21    1
    20    21    22   ar
    21    22    23   ar
    22    23    24   ar
    23    24    27    1
    24    27    28   ar
    25    28    29   ar
    26    29    30   ar
    27    30    31   ar
    28    31    32    1
    29    24    25   ar
    30    25    26    1
    31    13    14    1
    32     6     1   ar
    33    14    10    1
    34    10     4    1
    35    25    21   ar
    36    31    27   ar
@<TRIPOS>MOLECULE
*****
 32 36 0 0 0
SMALL
GASTEIGER

@<TRIPOS>ATOM
      1 C         141.5547  141.5731  165.9733 C.ar    1  UNL1        0.1384
      2 C         141.7614  140.7299  164.7501 C.ar    1  UNL1        0.0366
      3 C         140.9199  140.9597  163.5298 C.ar    1  UNL1       -0.0014
      4 C         139.8717  142.0326  163.5326 C.ar    1  UNL1       -0.0252
      5 C         139.6650  142.8759  164.7558 C.ar    1  UNL1       -0.0231
      6 C         140.5065  142.6461  165.9762 C.ar    1  UNL1        0.0323
      7 C         138.6168  143.9489  164.7587 C.3     1  UNL1        0.0261
      8 C         137.7754  144.1786  163.5383 C.3     1  UNL1        0.0050
      9 C         137.9822  143.3354  162.3151 C.3     1  UNL1        0.0058
     10 C         139.0303  142.2624  162.3123 C.3     1  UNL1        0.0347
     11 C         140.0345  141.1582  162.1620 C.3     1  UNL1        0.0227
     12 C         139.8939  140.5887  160.7815 C.3     1  UNL1        0.0725
     13 N         138.8030  141.3408  160.0786 N.3     1  UNL1       -0.2724
     14 C         138.2692  142.3752  161.0247 C.3     1  UNL1        0.0761
     15 C         142.6320  139.9477  167.6901 C.3     1  UNL1        0.2525
     16 O         142.3961  141.3434  167.1936 O.3     1  UNL1       -0.4714
     17 C         138.3290  141.1007  158.6758 C.3     1  UNL1        0.0730
     18 C         139.0471  141.7363  157.5224 C.3     1  UNL1        0.0294
     19 C         138.7999  143.1774  157.1873 C.3     1  UNL1        0.0666
     20 S         139.8770  144.1960  157.4162 S.3     1  UNL1       -0.0756
     21 C         140.4128  144.4231  158.7987 C.ar    1  UNL1        0.1933
     22 N         139.9195  145.4463  159.7784 N.ar    1  UNL1       -0.1220
     23 N         140.7378  145.3224  161.0295 N.ar    1  UNL1       -0.1250
     24 C         141.7368  144.2226  160.8230 C.ar    1  UNL1        0.2029
     25 N         141.5358  143.6669  159.4443 N.ar    1  UNL1       -0.2860
     26 C         142.3203  142.5508  158.8206 C.3     1  UNL1        0.1341
     27 C         142.7574  143.7599  161.8201 C.ar    1  UNL1        0.1964
     28 O         143.7888  142.6942  161.5960 O.2     1  UNL1       -0.4283
     29 C         144.5946  142.5573  162.8537 C.ar    1  UNL1        0.2849
     30 N         144.0612  143.5384  163.8551 N.ar    1  UNL1       -0.2085
     31 C         142.9257  144.2817  163.2162 C.ar    1  UNL1        0.1001
     32 C         142.1029  145.3578  163.8605 C.3     1  UNL1        0.0556
@<TRIPOS>BOND
     1    15    16    1
     2    16     1    1
     3     1     2   ar
     4     2     3   ar
     5     3     4   ar
     6     4     5   ar
     7     5     6   ar
     8     5     7    1
     9     7     8    1
    10     8     9    1
    11     9    10    1
    12    10    11    1
    13    11    12    1
    14    12    13    1
    15    13    17    1
    16    17    18    1
    17    18    19    1
    18    19    20    1
    19    20    21    1
    20    21    22   ar
    21    22    23   ar
    22    23    24   ar
    23    24    27    1
    24    27    28   ar
    25    28    29   ar
    26    29    30   ar
    27    30    31   ar
    28    31    32    1
    29    24    25   ar
    30    25    26    1
    31    13    14    1
    32     6     1   ar
    33    14    10    1
    34    10     4    1
    35    25    21   ar
    36    31    27   ar
