@<TRIPOS>MOLECULE
*****
 38 43 0 0 0
SMALL
GASTEIGER

@<TRIPOS>ATOM
      1 C         141.4315  143.9982  160.9364 C.ar    1  UNL1        0.0932
      2 C         141.0842  145.3819  160.4728 C.ar    1  UNL1        0.0405
      3 C         139.8202  146.0363  160.9462 C.ar    1  UNL1        0.1034
      4 N         138.9035  145.3070  161.8832 N.ar    1  UNL1       -0.2120
      5 C         139.2509  143.9234  162.3467 C.ar    1  UNL1        0.2207
      6 N         140.5149  143.2690  161.8733 N.ar    1  UNL1       -0.2130
      7 C         143.7708  142.7680  161.3362 C.ar    1  UNL1        0.0907
      8 N         144.8459  142.2187  160.4461 N.ar    1  UNL1       -0.2240
      9 C         144.4352  142.4549  159.0229 C.ar    1  UNL1        0.1631
     10 S         143.1062  143.1503  159.0334 S.2     1  UNL1       -0.0500
     11 C         142.6955  143.3438  160.4630 C.ar    1  UNL1        0.0674
     12 F         143.7710  142.6782  167.3355 F       1  UNL1       -0.2042
     13 C         143.7709  142.7007  165.8357 C.ar    1  UNL1        0.1401
     14 C         143.3401  141.4866  165.0674 C.ar    1  UNL1        0.0297
     15 C         143.3400  141.5090  163.5676 C.ar    1  UNL1        0.0038
     16 C         143.7708  142.7456  162.8360 C.ar    1  UNL1        0.0184
     17 C         144.2017  143.9597  163.6043 C.ar    1  UNL1        0.0038
     18 C         144.2017  143.9372  165.1041 C.ar    1  UNL1        0.0297
     19 N         145.2164  142.0644  157.8034 N.pl3   1  UNL1       -0.2882
     20 C         144.8521  140.9804  156.8327 C.3     1  UNL1        0.0927
     21 C         145.9096  140.9353  155.7699 C.3     1  UNL1        0.0232
     22 C         146.9275  141.9915  156.0837 C.3     1  UNL1        0.0232
     23 C         146.4991  142.6892  157.3405 C.3     1  UNL1        0.0927
     24 N         138.3342  143.1941  163.2837 N.pl3   1  UNL1       -0.2825
     25 H         137.3716  143.1364  163.0851 H       1  UNL1        0.1551
     26 C         138.8840  142.5528  164.5232 C.ar    1  UNL1        0.0505
     27 C         138.6071  141.1057  164.8049 C.ar    1  UNL1        0.0159
     28 C         139.1570  140.4643  166.0444 C.ar    1  UNL1        0.0158
     29 C         139.9837  141.2699  167.0022 C.ar    1  UNL1        0.0480
     30 C         140.2606  142.7171  166.7205 C.ar    1  UNL1        0.0158
     31 C         139.7108  143.3585  165.4810 C.ar    1  UNL1        0.0159
     32 N         140.5336  140.6286  168.2416 N.pl3   1  UNL1       -0.3047
     33 C         139.7349  140.6436  169.5112 C.3     1  UNL1        0.1079
     34 C         140.2847  140.0022  170.7507 C.3     1  UNL1        0.0903
     35 N         141.6332  139.3459  170.7206 N.3     1  UNL1       -0.2946
     36 C         142.4319  139.3309  169.4510 C.3     1  UNL1        0.0903
     37 C         141.8820  139.9723  168.2115 C.3     1  UNL1        0.1079
     38 H         141.4931  138.3726  170.9918 H       1  UNL1        0.1233
@<TRIPOS>BOND
     1    12    13    1
     2    13    14   ar
     3    14    15   ar
     4    15    16   ar
     5    16     7    1
     6     7     8   ar
     7     8     9   ar
     8     9    19    1
     9    19    20    1
    10    20    21    1
    11    21    22    1
    12    22    23    1
    13     9    10   ar
    14    10    11   ar
    15    11     1    1
    16     1     2   ar
    17     2     3   ar
    18     3     4   ar
    19     4     5   ar
    20     5    24    1
    21    24    26    1
    22    26    27   ar
    23    27    28   ar
    24    28    29   ar
    25    29    32    1
    26    32    33    1
    27    33    34    1
    28    34    35    1
    29    35    36    1
    30    36    37    1
    31    29    30   ar
    32    30    31   ar
    33     5     6   ar
    34    16    17   ar
    35    17    18   ar
    36    18    13   ar
    37    11     7   ar
    38     6     1   ar
    39    23    19    1
    40    31    26   ar
    41    37    32    1
    42    24    25    1
    43    35    38    1
@<TRIPOS>MOLECULE
*****
 38 43 0 0 0
SMALL
GASTEIGER

@<TRIPOS>ATOM
      1 C         139.9224  140.1293  160.6070 C.ar    1  UNL1        0.0932
      2 C         139.5540  141.3481  159.8139 C.ar    1  UNL1        0.0405
      3 C         138.5072  142.2904  160.3297 C.ar    1  UNL1        0.1034
      4 N         137.8287  142.0141  161.6386 N.ar    1  UNL1       -0.2120
      5 C         138.1971  140.7954  162.4317 C.ar    1  UNL1        0.2207
      6 N         139.2439  139.8530  161.9159 N.ar    1  UNL1       -0.2130
      7 C         141.9629  138.4318  160.9234 C.ar    1  UNL1        0.0907
      8 N         142.8139  137.6124  159.9991 N.ar    1  UNL1       -0.2240
      9 C         142.3463  137.8612  158.5957 C.ar    1  UNL1        0.1631
     10 S         141.2062  138.8342  158.6526 S.2     1  UNL1       -0.0500
     11 C         140.9693  139.1869  160.0912 C.ar    1  UNL1        0.0674
     12 F         142.4480  138.6504  166.8997 F       1  UNL1       -0.2042
     13 C         142.3267  138.5958  165.4056 C.ar    1  UNL1        0.1401
     14 C         141.5086  137.5179  164.7585 C.ar    1  UNL1        0.0297
     15 C         141.3873  137.4632  163.2644 C.ar    1  UNL1        0.0038
     16 C         142.0841  138.4865  162.4175 C.ar    1  UNL1        0.0184
     17 C         142.9022  139.5643  163.0646 C.ar    1  UNL1        0.0038
     18 C         143.0235  139.6190  164.5587 C.ar    1  UNL1        0.0297
     19 N         142.9184  137.2450  157.3535 N.pl3   1  UNL1       -0.2882
     20 C         143.4499  137.9891  156.1645 C.3     1  UNL1        0.0927
     21 C         143.9194  136.9804  155.1584 C.3     1  UNL1        0.0232
     22 C         143.6779  135.6129  155.7256 C.3     1  UNL1        0.0232
     23 C         143.0593  135.7764  157.0822 C.3     1  UNL1        0.0927
     24 N         137.5186  140.5190  163.7406 N.pl3   1  UNL1       -0.2825
     25 H         136.5573  140.3072  163.7618 H       1  UNL1        0.1551
     26 C         138.3046  140.5653  165.0174 C.ar    1  UNL1        0.0505
     27 C         139.2395  141.7081  165.2815 C.ar    1  UNL1        0.0159
     28 C         140.0256  141.7545  166.5583 C.ar    1  UNL1        0.0158
     29 C         139.8767  140.6579  167.5708 C.ar    1  UNL1        0.0480
     30 C         138.9418  139.5149  167.3066 C.ar    1  UNL1        0.0158
     31 C         138.1558  139.4686  166.0299 C.ar    1  UNL1        0.0159
     32 N         140.6628  140.7041  168.8475 N.pl3   1  UNL1       -0.3047
     33 C         142.1096  141.0990  168.8235 C.3     1  UNL1        0.1079
     34 C         142.8957  141.1452  170.1002 C.3     1  UNL1        0.0903
     35 N         142.2348  140.7967  171.4009 N.3     1  UNL1       -0.2946
     36 C         140.7880  140.4018  171.4249 C.3     1  UNL1        0.0903
     37 C         140.0019  140.3556  170.1482 C.3     1  UNL1        0.1079
     38 H         142.3275  141.6124  172.0061 H       1  UNL1        0.1233
@<TRIPOS>BOND
     1    12    13    1
     2    13    14   ar
     3    14    15   ar
     4    15    16   ar
     5    16     7    1
     6     7     8   ar
     7     8     9   ar
     8     9    19    1
     9    19    20    1
    10    20    21    1
    11    21    22    1
    12    22    23    1
    13     9    10   ar
    14    10    11   ar
    15    11     1    1
    16     1     2   ar
    17     2     3   ar
    18     3     4   ar
    19     4     5   ar
    20     5    24    1
    21    24    26    1
    22    26    27   ar
    23    27    28   ar
    24    28    29   ar
    25    29    32    1
    26    32    33    1
    27    33    34    1
    28    34    35    1
    29    35    36    1
    30    36    37    1
    31    29    30   ar
    32    30    31   ar
    33     5     6   ar
    34    16    17   ar
    35    17    18   ar
    36    18    13   ar
    37    11     7   ar
    38     6     1   ar
    39    23    19    1
    40    31    26   ar
    41    37    32    1
    42    24    25    1
    43    35    38    1
@<TRIPOS>MOLECULE
*****
 38 43 0 0 0
SMALL
GASTEIGER

@<TRIPOS>ATOM
      1 C         139.9915  142.1426  160.4281 C.ar    1  UNL1        0.0932
      2 C         140.3850  140.8120  159.8580 C.ar    1  UNL1        0.0405
      3 C         139.9851  139.5478  160.5592 C.ar    1  UNL1        0.1034
      4 N         139.1917  139.6140  161.8305 N.ar    1  UNL1       -0.2120
      5 C         138.7983  140.9445  162.4006 C.ar    1  UNL1        0.2207
      6 N         139.1982  142.2088  161.6993 N.ar    1  UNL1       -0.2130
      7 C         141.4006  144.4040  160.2140 C.ar    1  UNL1        0.0907
      8 N         141.4852  145.5093  159.2036 N.ar    1  UNL1       -0.2240
      9 C         140.5283  145.1953  158.0918 C.ar    1  UNL1        0.1631
     10 S         139.8523  143.8959  158.4153 S.2     1  UNL1       -0.0500
     11 C         140.3914  143.4069  159.7268 C.ar    1  UNL1        0.0674
     12 F         144.5463  144.0358  165.3100 F       1  UNL1       -0.2042
     13 C         143.7599  144.1278  164.0360 C.ar    1  UNL1        0.1401
     14 C         142.4616  144.8785  164.0087 C.ar    1  UNL1        0.0297
     15 C         141.6751  144.9705  162.7347 C.ar    1  UNL1        0.0038
     16 C         142.1870  144.3119  161.4880 C.ar    1  UNL1        0.0184
     17 C         143.4853  143.5613  161.5154 C.ar    1  UNL1        0.0038
     18 C         144.2718  143.4692  162.7894 C.ar    1  UNL1        0.0297
     19 N         140.2895  146.0336  156.8711 N.pl3   1  UNL1       -0.2882
     20 C         139.2644  147.1201  156.7344 C.3     1  UNL1        0.0927
     21 C         139.3751  147.6905  155.3515 C.3     1  UNL1        0.0232
     22 C         140.4687  146.9565  154.6335 C.3     1  UNL1        0.0232
     23 C         141.0338  145.9325  155.5727 C.3     1  UNL1        0.0927
     24 N         138.0049  141.0108  163.6719 N.pl3   1  UNL1       -0.2825
     25 H         137.0235  141.0793  163.6366 H       1  UNL1        0.1551
     26 C         138.7070  140.9726  164.9969 C.ar    1  UNL1        0.0505
     27 C         138.5283  139.7934  165.9066 C.ar    1  UNL1        0.0159
     28 C         139.2303  139.7551  167.2317 C.ar    1  UNL1        0.0158
     29 C         140.1110  140.8961  167.6470 C.ar    1  UNL1        0.0480
     30 C         140.2897  142.0754  166.7373 C.ar    1  UNL1        0.0158
     31 C         139.5877  142.1136  165.4122 C.ar    1  UNL1        0.0159
     32 N         140.8131  140.8579  168.9720 N.pl3   1  UNL1       -0.3047
     33 C         142.0144  139.9795  169.1591 C.3     1  UNL1        0.1079
     34 C         142.7165  139.9413  170.4842 C.3     1  UNL1        0.0903
     35 N         142.2171  140.7815  171.6220 N.3     1  UNL1       -0.2946
     36 C         141.0157  141.6599  171.4349 C.3     1  UNL1        0.0903
     37 C         140.3137  141.6981  170.1099 C.3     1  UNL1        0.1079
     38 H         142.9871  141.3907  171.8982 H       1  UNL1        0.1233
@<TRIPOS>BOND
     1    12    13    1
     2    13    14   ar
     3    14    15   ar
     4    15    16   ar
     5    16     7    1
     6     7     8   ar
     7     8     9   ar
     8     9    19    1
     9    19    20    1
    10    20    21    1
    11    21    22    1
    12    22    23    1
    13     9    10   ar
    14    10    11   ar
    15    11     1    1
    16     1     2   ar
    17     2     3   ar
    18     3     4   ar
    19     4     5   ar
    20     5    24    1
    21    24    26    1
    22    26    27   ar
    23    27    28   ar
    24    28    29   ar
    25    29    32    1
    26    32    33    1
    27    33    34    1
    28    34    35    1
    29    35    36    1
    30    36    37    1
    31    29    30   ar
    32    30    31   ar
    33     5     6   ar
    34    16    17   ar
    35    17    18   ar
    36    18    13   ar
    37    11     7   ar
    38     6     1   ar
    39    23    19    1
    40    31    26   ar
    41    37    32    1
    42    24    25    1
    43    35    38    1
@<TRIPOS>MOLECULE
*****
 38 43 0 0 0
SMALL
GASTEIGER

@<TRIPOS>ATOM
      1 C         140.9333  140.5580  160.6075 C.ar    1  UNL1        0.0932
      2 C         139.5510  140.8499  160.1033 C.ar    1  UNL1        0.0405
      3 C         138.7929  142.0306  160.6338 C.ar    1  UNL1        0.1034
      4 N         139.4171  142.9193  161.6685 N.ar    1  UNL1       -0.2120
      5 C         140.7993  142.6273  162.1727 C.ar    1  UNL1        0.2207
      6 N         141.5574  141.4467  161.6422 N.ar    1  UNL1       -0.2130
      7 C         142.4812  138.3975  160.8933 C.ar    1  UNL1        0.0907
      8 N         143.0706  137.3839  159.9578 N.ar    1  UNL1       -0.2240
      9 C         142.6451  137.7372  158.5635 C.ar    1  UNL1        0.1631
     10 S         141.7927  138.9692  158.6372 S.2     1  UNL1       -0.0500
     11 C         141.6914  139.3773  160.0770 C.ar    1  UNL1        0.0674
     12 F         143.1629  138.5128  166.8533 F       1  UNL1       -0.2042
     13 C         142.9925  138.4839  165.3633 C.ar    1  UNL1        0.1401
     14 C         141.7711  137.8560  164.7601 C.ar    1  UNL1        0.0297
     15 C         141.6006  137.8272  163.2701 C.ar    1  UNL1        0.0038
     16 C         142.6516  138.4263  162.3833 C.ar    1  UNL1        0.0184
     17 C         143.8730  139.0542  162.9864 C.ar    1  UNL1        0.0038
     18 C         144.0434  139.0830  164.4765 C.ar    1  UNL1        0.0297
     19 N         143.0083  136.9897  157.3148 N.pl3   1  UNL1       -0.2882
     20 C         143.0776  135.4984  157.1685 C.3     1  UNL1        0.0927
     21 C         143.4781  135.1893  155.7564 C.3     1  UNL1        0.0232
     22 C         143.6563  136.4895  155.0299 C.3     1  UNL1        0.0232
     23 C         143.3659  137.6022  155.9930 C.3     1  UNL1        0.0927
     24 N         141.4235  143.5161  163.2073 N.pl3   1  UNL1       -0.2825
     25 H         141.7684  144.4021  162.9519 H       1  UNL1        0.1551
     26 C         141.5222  143.0549  164.6313 C.ar    1  UNL1        0.0505
     27 C         142.8247  142.5338  165.1623 C.ar    1  UNL1        0.0159
     28 C         142.9234  142.0726  166.5863 C.ar    1  UNL1        0.0158
     29 C         141.7196  142.1324  167.4791 C.ar    1  UNL1        0.0480
     30 C         140.4170  142.6534  166.9481 C.ar    1  UNL1        0.0158
     31 C         140.3183  143.1146  165.5241 C.ar    1  UNL1        0.0159
     32 N         141.8183  141.6712  168.9031 N.pl3   1  UNL1       -0.3047
     33 C         142.8327  140.6351  169.2872 C.3     1  UNL1        0.1079
     34 C         142.9313  140.1739  170.7111 C.3     1  UNL1        0.0903
     35 N         142.0156  140.7488  171.7508 N.3     1  UNL1       -0.2946
     36 C         141.0013  141.7848  171.3667 C.3     1  UNL1        0.0903
     37 C         140.9026  142.2460  169.9428 C.3     1  UNL1        0.1079
     38 H         142.6092  141.1688  172.4661 H       1  UNL1        0.1233
@<TRIPOS>BOND
     1    12    13    1
     2    13    14   ar
     3    14    15   ar
     4    15    16   ar
     5    16     7    1
     6     7     8   ar
     7     8     9   ar
     8     9    19    1
     9    19    20    1
    10    20    21    1
    11    21    22    1
    12    22    23    1
    13     9    10   ar
    14    10    11   ar
    15    11     1    1
    16     1     2   ar
    17     2     3   ar
    18     3     4   ar
    19     4     5   ar
    20     5    24    1
    21    24    26    1
    22    26    27   ar
    23    27    28   ar
    24    28    29   ar
    25    29    32    1
    26    32    33    1
    27    33    34    1
    28    34    35    1
    29    35    36    1
    30    36    37    1
    31    29    30   ar
    32    30    31   ar
    33     5     6   ar
    34    16    17   ar
    35    17    18   ar
    36    18    13   ar
    37    11     7   ar
    38     6     1   ar
    39    23    19    1
    40    31    26   ar
    41    37    32    1
    42    24    25    1
    43    35    38    1
@<TRIPOS>MOLECULE
*****
 38 43 0 0 0
SMALL
GASTEIGER

@<TRIPOS>ATOM
      1 C         139.0150  140.5932  161.1707 C.ar    1  UNL1        0.0932
      2 C         137.7934  139.8272  160.7569 C.ar    1  UNL1        0.0405
      3 C         137.5240  138.4724  161.3414 C.ar    1  UNL1        0.1034
      4 N         138.4760  137.8834  162.3398 N.ar    1  UNL1       -0.2120
      5 C         139.6975  138.6494  162.7536 C.ar    1  UNL1        0.2207
      6 N         139.9670  140.0042  162.1690 N.ar    1  UNL1       -0.2130
      7 C         139.5952  143.1957  161.3586 C.ar    1  UNL1        0.0907
      8 N         139.7933  144.3118  160.3763 N.ar    1  UNL1       -0.2240
      9 C         139.6049  143.7540  158.9966 C.ar    1  UNL1        0.1631
     10 S         139.2905  142.2931  159.1263 S.2     1  UNL1       -0.0500
     11 C         139.2845  141.9481  160.5861 C.ar    1  UNL1        0.0674
     12 F         139.9787  143.6432  167.3296 F       1  UNL1       -0.2042
     13 C         139.8829  143.5313  165.8369 C.ar    1  UNL1        0.1401
     14 C         138.6061  143.8938  165.1381 C.ar    1  UNL1        0.0297
     15 C         138.5102  143.7820  163.6453 C.ar    1  UNL1        0.0038
     16 C         139.6911  143.3076  162.8514 C.ar    1  UNL1        0.0184
     17 C         140.9679  142.9450  163.5502 C.ar    1  UNL1        0.0038
     18 C         141.0638  143.0569  165.0429 C.ar    1  UNL1        0.0297
     19 N         139.7122  144.5223  157.7128 N.pl3   1  UNL1       -0.2882
     20 C         140.3576  145.8653  157.5402 C.3     1  UNL1        0.0927
     21 C         140.2372  146.2553  156.0968 C.3     1  UNL1        0.0232
     22 C         139.5174  145.1535  155.3773 C.3     1  UNL1        0.0232
     23 C         139.1929  144.0824  156.3761 C.3     1  UNL1        0.0927
     24 N         140.6496  138.0605  163.7520 N.pl3   1  UNL1       -0.2825
     25 H         141.1018  137.2079  163.5574 H       1  UNL1        0.1551
     26 C         140.9126  138.7705  165.0468 C.ar    1  UNL1        0.0505
     27 C         142.3044  138.8237  165.6037 C.ar    1  UNL1        0.0159
     28 C         142.5675  139.5338  166.8986 C.ar    1  UNL1        0.0158
     29 C         141.4389  140.1907  167.6365 C.ar    1  UNL1        0.0480
     30 C         140.0470  140.1375  167.0796 C.ar    1  UNL1        0.0158
     31 C         139.7839  139.4274  165.7848 C.ar    1  UNL1        0.0159
     32 N         141.7019  140.9007  168.9314 N.pl3   1  UNL1       -0.3047
     33 C         142.6731  142.0430  168.9764 C.3     1  UNL1        0.1079
     34 C         142.9361  142.7531  170.2712 C.3     1  UNL1        0.0903
     35 N         142.2281  142.3208  171.5210 N.3     1  UNL1       -0.2946
     36 C         141.2569  141.1786  171.4759 C.3     1  UNL1        0.0903
     37 C         140.9939  140.4685  170.1811 C.3     1  UNL1        0.1079
     38 H         141.7129  143.1320  171.8630 H       1  UNL1        0.1233
@<TRIPOS>BOND
     1    12    13    1
     2    13    14   ar
     3    14    15   ar
     4    15    16   ar
     5    16     7    1
     6     7     8   ar
     7     8     9   ar
     8     9    19    1
     9    19    20    1
    10    20    21    1
    11    21    22    1
    12    22    23    1
    13     9    10   ar
    14    10    11   ar
    15    11     1    1
    16     1     2   ar
    17     2     3   ar
    18     3     4   ar
    19     4     5   ar
    20     5    24    1
    21    24    26    1
    22    26    27   ar
    23    27    28   ar
    24    28    29   ar
    25    29    32    1
    26    32    33    1
    27    33    34    1
    28    34    35    1
    29    35    36    1
    30    36    37    1
    31    29    30   ar
    32    30    31   ar
    33     5     6   ar
    34    16    17   ar
    35    17    18   ar
    36    18    13   ar
    37    11     7   ar
    38     6     1   ar
    39    23    19    1
    40    31    26   ar
    41    37    32    1
    42    24    25    1
    43    35    38    1
@<TRIPOS>MOLECULE
*****
 38 43 0 0 0
SMALL
GASTEIGER

@<TRIPOS>ATOM
      1 C         142.3094  142.9117  160.4829 C.ar    1  UNL1        0.0932
      2 C         143.7916  142.8499  160.2604 C.ar    1  UNL1        0.0405
      3 C         144.6126  141.8088  160.9621 C.ar    1  UNL1        0.1034
      4 N         143.9514  140.8296  161.8862 N.ar    1  UNL1       -0.2120
      5 C         142.4693  140.8915  162.1087 C.ar    1  UNL1        0.2207
      6 N         141.6484  141.9325  161.4070 N.ar    1  UNL1       -0.2130
      7 C         140.4372  144.8181  160.4103 C.ar    1  UNL1        0.0907
      8 N         139.8737  145.7113  159.3451 N.ar    1  UNL1       -0.2240
      9 C         140.5768  145.3979  158.0577 C.ar    1  UNL1        0.1631
     10 S         141.5748  144.3110  158.3272 S.2     1  UNL1       -0.0500
     11 C         141.4885  143.9527  159.7812 C.ar    1  UNL1        0.0674
     12 F         138.7773  144.7235  166.1754 F       1  UNL1       -0.2042
     13 C         139.1922  144.7471  164.7341 C.ar    1  UNL1        0.1401
     14 C         140.5840  145.1640  164.3611 C.ar    1  UNL1        0.0297
     15 C         140.9990  145.1876  162.9199 C.ar    1  UNL1        0.0038
     16 C         140.0222  144.7944  161.8516 C.ar    1  UNL1        0.0184
     17 C         138.6304  144.3776  162.2246 C.ar    1  UNL1        0.0038
     18 C         138.2155  144.3539  163.6659 C.ar    1  UNL1        0.0297
     19 N         140.3259  146.0559  156.7333 N.pl3   1  UNL1       -0.2882
     20 C         141.0626  145.7773  155.4567 C.3     1  UNL1        0.0927
     21 C         140.4862  146.6573  154.3874 C.3     1  UNL1        0.0232
     22 C         139.3932  147.4798  155.0031 C.3     1  UNL1        0.0232
     23 C         139.2942  147.1081  156.4529 C.3     1  UNL1        0.0927
     24 N         141.8081  139.9123  163.0328 N.pl3   1  UNL1       -0.2825
     25 H         141.5245  139.0318  162.6959 H       1  UNL1        0.1551
     26 C         141.5791  140.2746  164.4702 C.ar    1  UNL1        0.0505
     27 C         142.3631  139.5900  165.5503 C.ar    1  UNL1        0.0159
     28 C         142.1342  139.9522  166.9879 C.ar    1  UNL1        0.0158
     29 C         141.1212  140.9992  167.3452 C.ar    1  UNL1        0.0480
     30 C         140.3371  141.6839  166.2651 C.ar    1  UNL1        0.0158
     31 C         140.5661  141.3215  164.8276 C.ar    1  UNL1        0.0159
     32 N         140.8922  141.3615  168.7827 N.pl3   1  UNL1       -0.3047
     33 C         140.2869  142.6881  169.1344 C.3     1  UNL1        0.1079
     34 C         140.0579  143.0504  170.5719 C.3     1  UNL1        0.0903
     35 N         140.4341  142.0862  171.6575 N.3     1  UNL1       -0.2946
     36 C         141.0393  140.7596  171.3058 C.3     1  UNL1        0.0903
     37 C         141.2684  140.3972  169.8683 C.3     1  UNL1        0.1079
     38 H         139.5837  141.8910  172.1857 H       1  UNL1        0.1233
@<TRIPOS>BOND
     1    12    13    1
     2    13    14   ar
     3    14    15   ar
     4    15    16   ar
     5    16     7    1
     6     7     8   ar
     7     8     9   ar
     8     9    19    1
     9    19    20    1
    10    20    21    1
    11    21    22    1
    12    22    23    1
    13     9    10   ar
    14    10    11   ar
    15    11     1    1
    16     1     2   ar
    17     2     3   ar
    18     3     4   ar
    19     4     5   ar
    20     5    24    1
    21    24    26    1
    22    26    27   ar
    23    27    28   ar
    24    28    29   ar
    25    29    32    1
    26    32    33    1
    27    33    34    1
    28    34    35    1
    29    35    36    1
    30    36    37    1
    31    29    30   ar
    32    30    31   ar
    33     5     6   ar
    34    16    17   ar
    35    17    18   ar
    36    18    13   ar
    37    11     7   ar
    38     6     1   ar
    39    23    19    1
    40    31    26   ar
    41    37    32    1
    42    24    25    1
    43    35    38    1
@<TRIPOS>MOLECULE
*****
 38 43 0 0 0
SMALL
GASTEIGER

@<TRIPOS>ATOM
      1 C         141.8082  142.1428  160.5946 C.ar    1  UNL1        0.0932
      2 C         142.9725  142.8775  159.9988 C.ar    1  UNL1        0.0405
      3 C         144.3510  142.6749  160.5544 C.ar    1  UNL1        0.1034
      4 N         144.5653  141.7377  161.7057 N.ar    1  UNL1       -0.2120
      5 C         143.4011  141.0030  162.3015 C.ar    1  UNL1        0.2207
      6 N         142.0226  141.2056  161.7459 N.ar    1  UNL1       -0.2130
      7 C         139.2433  142.8684  160.7932 C.ar    1  UNL1        0.0907
      8 N         138.0760  142.9068  159.8519 N.ar    1  UNL1       -0.2240
      9 C         138.5410  142.4074  158.5161 C.ar    1  UNL1        0.1631
     10 S         139.9957  142.0605  158.6317 S.2     1  UNL1       -0.0500
     11 C         140.4297  142.3454  160.0390 C.ar    1  UNL1        0.0674
     12 F         139.1781  144.5176  166.5617 F       1  UNL1       -0.2042
     13 C         139.1944  144.1053  165.1196 C.ar    1  UNL1        0.1401
     14 C         138.2001  143.1018  164.6151 C.ar    1  UNL1        0.0297
     15 C         138.2164  142.6895  163.1730 C.ar    1  UNL1        0.0038
     16 C         139.2270  143.2807  162.2353 C.ar    1  UNL1        0.0184
     17 C         140.2212  144.2841  162.7397 C.ar    1  UNL1        0.0038
     18 C         140.2049  144.6964  164.1819 C.ar    1  UNL1        0.0297
     19 N         137.6991  142.2778  157.2814 N.pl3   1  UNL1       -0.2882
     20 C         136.8520  141.0964  156.9119 C.3     1  UNL1        0.0927
     21 C         136.1858  141.3954  155.6016 C.3     1  UNL1        0.0232
     22 C         136.6212  142.7616  155.1613 C.3     1  UNL1        0.0232
     23 C         137.5564  143.3070  156.1995 C.3     1  UNL1        0.0927
     24 N         143.6155  140.0658  163.4528 N.pl3   1  UNL1       -0.2825
     25 H         144.0921  139.2157  163.3134 H       1  UNL1        0.1551
     26 C         143.1036  140.4237  164.8166 C.ar    1  UNL1        0.0505
     27 C         142.6042  141.8114  165.0899 C.ar    1  UNL1        0.0159
     28 C         142.0922  142.1694  166.4537 C.ar    1  UNL1        0.0158
     29 C         142.0797  141.1396  167.5441 C.ar    1  UNL1        0.0480
     30 C         142.5791  139.7517  167.2709 C.ar    1  UNL1        0.0158
     31 C         143.0910  139.3938  165.9071 C.ar    1  UNL1        0.0159
     32 N         141.5678  141.4975  168.9079 N.pl3   1  UNL1       -0.3047
     33 C         140.5147  142.5547  169.0600 C.3     1  UNL1        0.1079
     34 C         140.0028  142.9126  170.4237 C.3     1  UNL1        0.0903
     35 N         140.5440  142.2133  171.6354 N.3     1  UNL1       -0.2946
     36 C         141.5970  141.1560  171.4833 C.3     1  UNL1        0.0903
     37 C         142.1090  140.7981  170.1195 C.3     1  UNL1        0.1079
     38 H         139.7500  141.7733  172.1005 H       1  UNL1        0.1233
@<TRIPOS>BOND
     1    12    13    1
     2    13    14   ar
     3    14    15   ar
     4    15    16   ar
     5    16     7    1
     6     7     8   ar
     7     8     9   ar
     8     9    19    1
     9    19    20    1
    10    20    21    1
    11    21    22    1
    12    22    23    1
    13     9    10   ar
    14    10    11   ar
    15    11     1    1
    16     1     2   ar
    17     2     3   ar
    18     3     4   ar
    19     4     5   ar
    20     5    24    1
    21    24    26    1
    22    26    27   ar
    23    27    28   ar
    24    28    29   ar
    25    29    32    1
    26    32    33    1
    27    33    34    1
    28    34    35    1
    29    35    36    1
    30    36    37    1
    31    29    30   ar
    32    30    31   ar
    33     5     6   ar
    34    16    17   ar
    35    17    18   ar
    36    18    13   ar
    37    11     7   ar
    38     6     1   ar
    39    23    19    1
    40    31    26   ar
    41    37    32    1
    42    24    25    1
    43    35    38    1
@<TRIPOS>MOLECULE
*****
 38 43 0 0 0
SMALL
GASTEIGER

@<TRIPOS>ATOM
      1 C         141.4692  141.8515  160.3804 C.ar    1  UNL1        0.0932
      2 C         140.2440  142.5784  159.9103 C.ar    1  UNL1        0.0405
      3 C         138.9219  142.3258  160.5722 C.ar    1  UNL1        0.1034
      4 N         138.8248  141.3464  161.7041 N.ar    1  UNL1       -0.2120
      5 C         140.0498  140.6195  162.1741 C.ar    1  UNL1        0.2207
      6 N         141.3720  140.8721  161.5122 N.ar    1  UNL1       -0.2130
      7 C         144.0478  142.5551  160.4024 C.ar    1  UNL1        0.0907
      8 N         145.1221  142.6797  159.3630 N.ar    1  UNL1       -0.2240
      9 C         144.5296  142.3058  158.0367 C.ar    1  UNL1        0.1631
     10 S         143.0891  141.9500  158.2564 S.2     1  UNL1       -0.0500
     11 C         142.7913  142.1041  159.7185 C.ar    1  UNL1        0.0674
     12 F         144.6677  143.6654  166.2661 F       1  UNL1       -0.2042
     13 C         144.5128  143.3879  164.8002 C.ar    1  UNL1        0.1401
     14 C         143.6933  144.3083  163.9451 C.ar    1  UNL1        0.0297
     15 C         143.5383  144.0307  162.4792 C.ar    1  UNL1        0.0038
     16 C         144.2028  142.8327  161.8683 C.ar    1  UNL1        0.0184
     17 C         145.0222  141.9122  162.7234 C.ar    1  UNL1        0.0038
     18 C         145.1772  142.1898  164.1894 C.ar    1  UNL1        0.0297
     19 N         145.2510  142.2904  156.7217 N.pl3   1  UNL1       -0.2882
     20 C         146.7338  142.4076  156.5280 C.3     1  UNL1        0.0927
     21 C         147.0154  142.3447  155.0560 C.3     1  UNL1        0.0232
     22 C         145.7066  142.1885  154.3399 C.3     1  UNL1        0.0232
     23 C         144.6162  142.1549  155.3694 C.3     1  UNL1        0.0927
     24 N         139.9527  139.6401  163.3060 N.pl3   1  UNL1       -0.2825
     25 H         139.6564  138.7170  163.1342 H       1  UNL1        0.1551
     26 C         140.3069  140.0669  164.6997 C.ar    1  UNL1        0.0505
     27 C         141.6116  140.7583  164.9635 C.ar    1  UNL1        0.0159
     28 C         141.9659  141.1852  166.3572 C.ar    1  UNL1        0.0158
     29 C         141.0154  140.9207  167.4870 C.ar    1  UNL1        0.0480
     30 C         139.7106  140.2292  167.2232 C.ar    1  UNL1        0.0158
     31 C         139.3564  139.8024  165.8295 C.ar    1  UNL1        0.0159
     32 N         141.3696  141.3476  168.8807 N.pl3   1  UNL1       -0.3047
     33 C         140.7590  140.6464  170.0578 C.3     1  UNL1        0.1079
     34 C         141.1132  141.0733  171.4515 C.3     1  UNL1        0.0903
     35 N         142.0780  142.2012  171.6680 N.3     1  UNL1       -0.2946
     36 C         142.6887  142.9023  170.4909 C.3     1  UNL1        0.0903
     37 C         142.3345  142.4755  169.0973 C.3     1  UNL1        0.1079
     38 H         142.8495  141.8269  172.2204 H       1  UNL1        0.1233
@<TRIPOS>BOND
     1    12    13    1
     2    13    14   ar
     3    14    15   ar
     4    15    16   ar
     5    16     7    1
     6     7     8   ar
     7     8     9   ar
     8     9    19    1
     9    19    20    1
    10    20    21    1
    11    21    22    1
    12    22    23    1
    13     9    10   ar
    14    10    11   ar
    15    11     1    1
    16     1     2   ar
    17     2     3   ar
    18     3     4   ar
    19     4     5   ar
    20     5    24    1
    21    24    26    1
    22    26    27   ar
    23    27    28   ar
    24    28    29   ar
    25    29    32    1
    26    32    33    1
    27    33    34    1
    28    34    35    1
    29    35    36    1
    30    36    37    1
    31    29    30   ar
    32    30    31   ar
    33     5     6   ar
    34    16    17   ar
    35    17    18   ar
    36    18    13   ar
    37    11     7   ar
    38     6     1   ar
    39    23    19    1
    40    31    26   ar
    41    37    32    1
    42    24    25    1
    43    35    38    1
@<TRIPOS>MOLECULE
*****
 38 43 0 0 0
SMALL
GASTEIGER

@<TRIPOS>ATOM
      1 C         142.4678  140.3313  160.9738 C.ar    1  UNL1        0.0932
      2 C         143.4158  139.5337  160.1279 C.ar    1  UNL1        0.0405
      3 C         143.7297  138.1123  160.4900 C.ar    1  UNL1        0.1034
      4 N         143.0958  137.4884  161.6978 N.ar    1  UNL1       -0.2120
      5 C         142.1479  138.2860  162.5436 C.ar    1  UNL1        0.2207
      6 N         141.8339  139.7074  162.1816 N.ar    1  UNL1       -0.2130
      7 C         142.2311  142.9346  161.5321 C.ar    1  UNL1        0.0907
      8 N         141.8325  144.1540  160.7549 N.ar    1  UNL1       -0.2240
      9 C         141.5088  143.7258  159.3542 C.ar    1  UNL1        0.1631
     10 S         141.7074  142.2416  159.2657 S.2     1  UNL1       -0.0500
     11 C         142.1538  141.7526  160.6117 C.ar    1  UNL1        0.0674
     12 F         143.8505  142.8070  167.3080 F       1  UNL1       -0.2042
     13 C         143.4457  142.8389  165.8640 C.ar    1  UNL1        0.1401
     14 C         141.9960  142.7502  165.4894 C.ar    1  UNL1        0.0297
     15 C         141.5911  142.7821  164.0454 C.ar    1  UNL1        0.0038
     16 C         142.6360  142.9027  162.9760 C.ar    1  UNL1        0.0184
     17 C         144.0857  142.9914  163.3506 C.ar    1  UNL1        0.0038
     18 C         144.4906  142.9595  164.7946 C.ar    1  UNL1        0.0297
     19 N         141.0645  144.6239  158.2380 N.pl3   1  UNL1       -0.2882
     20 C         141.3154  144.4033  156.7757 C.3     1  UNL1        0.0927
     21 C         140.6973  145.5435  156.0222 C.3     1  UNL1        0.0232
     22 C         140.0644  146.4689  157.0187 C.3     1  UNL1        0.0232
     23 C         140.2914  145.9005  158.3882 C.3     1  UNL1        0.0927
     24 N         141.5140  137.6621  163.7514 N.pl3   1  UNL1       -0.2825
     25 H         141.1510  136.7484  163.7003 H       1  UNL1        0.1551
     26 C         141.4330  138.4304  165.0372 C.ar    1  UNL1        0.0505
     27 C         140.1163  138.9785  165.5018 C.ar    1  UNL1        0.0159
     28 C         140.0353  139.7468  166.7876 C.ar    1  UNL1        0.0158
     29 C         141.2711  139.9670  167.6088 C.ar    1  UNL1        0.0480
     30 C         142.5879  139.4188  167.1442 C.ar    1  UNL1        0.0158
     31 C         142.6688  138.6505  165.8584 C.ar    1  UNL1        0.0159
     32 N         141.1902  140.7352  168.8946 N.pl3   1  UNL1       -0.3047
     33 C         141.9418  140.2582  170.1018 C.3     1  UNL1        0.1079
     34 C         141.8609  141.0264  171.3876 C.3     1  UNL1        0.0903
     35 N         141.0283  142.2717  171.4660 N.3     1  UNL1       -0.2946
     36 C         140.2767  142.7488  170.2588 C.3     1  UNL1        0.0903
     37 C         140.3577  141.9805  168.9730 C.3     1  UNL1        0.1079
     38 H         141.6552  143.0281  171.7405 H       1  UNL1        0.1233
@<TRIPOS>BOND
     1    12    13    1
     2    13    14   ar
     3    14    15   ar
     4    15    16   ar
     5    16     7    1
     6     7     8   ar
     7     8     9   ar
     8     9    19    1
     9    19    20    1
    10    20    21    1
    11    21    22    1
    12    22    23    1
    13     9    10   ar
    14    10    11   ar
    15    11     1    1
    16     1     2   ar
    17     2     3   ar
    18     3     4   ar
    19     4     5   ar
    20     5    24    1
    21    24    26    1
    22    26    27   ar
    23    27    28   ar
    24    28    29   ar
    25    29    32    1
    26    32    33    1
    27    33    34    1
    28    34    35    1
    29    35    36    1
    30    36    37    1
    31    29    30   ar
    32    30    31   ar
    33     5     6   ar
    34    16    17   ar
    35    17    18   ar
    36    18    13   ar
    37    11     7   ar
    38     6     1   ar
    39    23    19    1
    40    31    26   ar
    41    37    32    1
    42    24    25    1
    43    35    38    1
