@<TRIPOS>MOLECULE
*****
 30 33 0 0 0
SMALL
GASTEIGER

@<TRIPOS>ATOM
      1 C         141.9813  138.4870  164.1710 C.ar    1  UNL1        0.1453
      2 C         141.0641  137.5297  163.4694 C.ar    1  UNL1        0.0372
      3 C         140.5750  137.8376  162.0851 C.ar    1  UNL1        0.0002
      4 C         141.0032  139.1028  161.4026 C.ar    1  UNL1       -0.0059
      5 C         141.9205  140.0601  162.1041 C.ar    1  UNL1        0.0002
      6 C         142.4095  139.7522  163.4883 C.ar    1  UNL1        0.0372
      7 O         142.4704  138.1791  165.5552 O.3     1  UNL1       -0.4535
      8 C         141.2184  140.7730  169.0127 C.ar    1  UNL1        0.1470
      9 C         140.3370  140.6568  167.8046 C.ar    1  UNL1        0.0403
     10 C         140.7543  139.7922  166.6521 C.ar    1  UNL1        0.0406
     11 C         142.0530  139.0438  166.7077 C.ar    1  UNL1        0.1455
     12 C         142.9344  139.1599  167.9158 C.ar    1  UNL1        0.0406
     13 C         142.5171  140.0246  169.0683 C.ar    1  UNL1        0.0403
     14 O         140.8011  141.6376  170.1652 O.3     1  UNL1       -0.4045
     15 F         140.2431  144.5528  169.7284 F       1  UNL1       -0.1328
     16 C         140.5220  143.0952  169.9468 C.3     1  UNL1        0.5753
     17 F         139.2083  142.9499  170.6559 F       1  UNL1       -0.1328
     18 F         141.8358  143.2404  169.2377 F       1  UNL1       -0.1328
     19 C         140.5142  139.4106  160.0184 C.3     1  UNL1        0.0992
     20 N         140.9258  138.5418  158.8669 N.3     1  UNL1       -0.2688
     21 C         139.9247  138.1672  157.8146 C.3     1  UNL1        0.0748
     22 C         140.3363  137.2984  156.6632 C.3     1  UNL1        0.0446
     23 C         141.7491  136.8042  156.5641 C.3     1  UNL1        0.0954
     24 C         140.7480  136.4296  155.5118 C.3     1  UNL1        0.0274
     25 C         141.1596  135.5608  154.3604 C.3     1  UNL1        0.0050
     26 C         142.5724  135.0666  154.2614 C.3     1  UNL1        0.0321
     27 C         143.5736  135.4412  155.3137 C.3     1  UNL1        0.1419
     28 O         143.1619  136.3100  156.4650 O.3     1  UNL1       -0.3584
     29 C         142.7503  137.1788  157.6165 C.3     1  UNL1        0.0446
     30 C         142.3386  138.0476  158.7679 C.3     1  UNL1        0.0748
@<TRIPOS>BOND
     1    15    16    1
     2    16    17    1
     3    16    18    1
     4    16    14    1
     5    14     8    1
     6     8     9   ar
     7     9    10   ar
     8    10    11   ar
     9    11     7    1
    10     7     1    1
    11     1     2   ar
    12     2     3   ar
    13     3     4   ar
    14     4    19    1
    15    19    20    1
    16    20    21    1
    17    21    22    1
    18    22    23    1
    19    23    24    1
    20    24    25    1
    21    25    26    1
    22    26    27    1
    23    27    28    1
    24    23    29    1
    25    29    30    1
    26     4     5   ar
    27     5     6   ar
    28    11    12   ar
    29    12    13   ar
    30    13     8   ar
    31     6     1   ar
    32    30    20    1
    33    28    23    1
@<TRIPOS>MOLECULE
*****
 30 33 0 0 0
SMALL
GASTEIGER

@<TRIPOS>ATOM
      1 C         138.9312  138.8344  163.6852 C.ar    1  UNL1        0.1453
      2 C         138.7872  140.2661  163.2613 C.ar    1  UNL1        0.0372
      3 C         139.0972  140.6648  161.8488 C.ar    1  UNL1        0.0002
      4 C         139.5512  139.6319  160.8604 C.ar    1  UNL1       -0.0059
      5 C         139.6952  138.2002  161.2844 C.ar    1  UNL1        0.0002
      6 C         139.3852  137.8015  162.6967 C.ar    1  UNL1        0.0372
      7 O         138.6212  138.4357  165.0976 O.3     1  UNL1       -0.4535
      8 C         140.8262  140.3619  168.5149 C.ar    1  UNL1        0.1470
      9 C         139.3518  140.1079  168.6218 C.ar    1  UNL1        0.0403
     10 C         138.6168  139.4659  167.4827 C.ar    1  UNL1        0.0406
     11 C         139.3562  139.0778  166.2367 C.ar    1  UNL1        0.1455
     12 C         140.8307  139.3317  166.1298 C.ar    1  UNL1        0.0406
     13 C         141.5657  139.9738  167.2689 C.ar    1  UNL1        0.0403
     14 O         141.5613  141.0039  169.6540 O.3     1  UNL1       -0.4045
     15 F         144.0917  142.5300  169.1364 F       1  UNL1       -0.1328
     16 C         142.8265  141.7669  169.3952 C.3     1  UNL1        0.5753
     17 F         142.0385  142.8382  168.7013 F       1  UNL1       -0.1328
     18 F         143.6144  140.6957  170.0890 F       1  UNL1       -0.1328
     19 C         139.8612  140.0306  159.4480 C.3     1  UNL1        0.0992
     20 N         140.5338  139.0584  158.5246 N.3     1  UNL1       -0.2688
     21 C         139.7139  138.2339  157.5771 C.3     1  UNL1        0.0748
     22 C         140.3865  137.2617  156.6537 C.3     1  UNL1        0.0446
     23 C         141.8790  137.1141  156.6779 C.3     1  UNL1        0.0954
     24 C         141.0591  136.2896  155.7304 C.3     1  UNL1        0.0274
     25 C         141.7317  135.3175  154.8071 C.3     1  UNL1        0.0050
     26 C         143.2243  135.1699  154.8313 C.3     1  UNL1        0.0321
     27 C         144.0442  135.9944  155.7789 C.3     1  UNL1        0.1419
     28 O         143.3715  136.9665  156.7022 O.3     1  UNL1       -0.3584
     29 C         142.6989  137.9387  157.6256 C.3     1  UNL1        0.0446
     30 C         142.0263  138.9108  158.5489 C.3     1  UNL1        0.0748
@<TRIPOS>BOND
     1    15    16    1
     2    16    17    1
     3    16    18    1
     4    16    14    1
     5    14     8    1
     6     8     9   ar
     7     9    10   ar
     8    10    11   ar
     9    11     7    1
    10     7     1    1
    11     1     2   ar
    12     2     3   ar
    13     3     4   ar
    14     4    19    1
    15    19    20    1
    16    20    21    1
    17    21    22    1
    18    22    23    1
    19    23    24    1
    20    24    25    1
    21    25    26    1
    22    26    27    1
    23    27    28    1
    24    23    29    1
    25    29    30    1
    26     4     5   ar
    27     5     6   ar
    28    11    12   ar
    29    12    13   ar
    30    13     8   ar
    31     6     1   ar
    32    30    20    1
    33    28    23    1
@<TRIPOS>MOLECULE
*****
 30 33 0 0 0
SMALL
GASTEIGER

@<TRIPOS>ATOM
      1 C         140.5066  138.7565  158.6148 C.ar    1  UNL1        0.1453
      2 C         141.9601  138.4177  158.7654 C.ar    1  UNL1        0.0372
      3 C         142.6192  137.4905  157.7877 C.ar    1  UNL1        0.0002
      4 C         141.8250  136.9021  156.6595 C.ar    1  UNL1       -0.0059
      5 C         140.3715  137.2410  156.5089 C.ar    1  UNL1        0.0002
      6 C         139.7123  138.1681  157.4865 C.ar    1  UNL1        0.0372
      7 O         139.8474  139.6837  159.5924 O.3     1  UNL1       -0.4535
      8 C         139.7398  138.6346  163.9671 C.ar    1  UNL1        0.1470
      9 C         139.1503  137.6963  162.9561 C.ar    1  UNL1        0.0403
     10 C         139.1862  138.0460  161.4979 C.ar    1  UNL1        0.0406
     11 C         139.8116  139.3340  161.0507 C.ar    1  UNL1        0.1455
     12 C         140.4010  140.2722  162.0617 C.ar    1  UNL1        0.0406
     13 C         140.3651  139.9225  163.5199 C.ar    1  UNL1        0.0403
     14 O         139.7039  138.2849  165.4253 O.3     1  UNL1       -0.4045
     15 F         137.1649  138.6234  166.9871 F       1  UNL1       -0.1328
     16 C         138.4344  138.4541  166.2062 C.3     1  UNL1        0.5753
     17 F         138.1219  136.9998  166.0133 F       1  UNL1       -0.1328
     18 F         138.7470  139.9084  166.3991 F       1  UNL1       -0.1328
     19 C         142.4842  135.9750  155.6819 C.3     1  UNL1        0.0992
     20 N         142.7722  134.5554  156.0717 N.3     1  UNL1       -0.2688
     21 C         143.8989  134.2502  157.0137 C.3     1  UNL1        0.0748
     22 C         144.1870  132.8306  157.4035 C.3     1  UNL1        0.0446
     23 C         143.3484  131.7163  156.8512 C.3     1  UNL1        0.0954
     24 C         144.4750  131.4111  157.7932 C.3     1  UNL1        0.0274
     25 C         144.7631  129.9915  158.1830 C.3     1  UNL1        0.0050
     26 C         143.9244  128.8772  157.6307 C.3     1  UNL1        0.0321
     27 C         142.7977  129.1824  156.6887 C.3     1  UNL1        0.1419
     28 O         142.5097  130.6020  156.2990 O.3     1  UNL1       -0.3584
     29 C         142.2216  132.0215  155.9092 C.3     1  UNL1        0.0446
     30 C         141.9336  133.4411  155.5194 C.3     1  UNL1        0.0748
@<TRIPOS>BOND
     1    15    16    1
     2    16    17    1
     3    16    18    1
     4    16    14    1
     5    14     8    1
     6     8     9   ar
     7     9    10   ar
     8    10    11   ar
     9    11     7    1
    10     7     1    1
    11     1     2   ar
    12     2     3   ar
    13     3     4   ar
    14     4    19    1
    15    19    20    1
    16    20    21    1
    17    21    22    1
    18    22    23    1
    19    23    24    1
    20    24    25    1
    21    25    26    1
    22    26    27    1
    23    27    28    1
    24    23    29    1
    25    29    30    1
    26     4     5   ar
    27     5     6   ar
    28    11    12   ar
    29    12    13   ar
    30    13     8   ar
    31     6     1   ar
    32    30    20    1
    33    28    23    1
@<TRIPOS>MOLECULE
*****
 30 33 0 0 0
SMALL
GASTEIGER

@<TRIPOS>ATOM
      1 C         140.6284  139.1829  158.9951 C.ar    1  UNL1        0.1453
      2 C         142.0903  138.9172  158.7893 C.ar    1  UNL1        0.0372
      3 C         142.5371  137.9798  157.7068 C.ar    1  UNL1        0.0002
      4 C         141.5220  137.3082  156.8302 C.ar    1  UNL1       -0.0059
      5 C         140.0601  137.5739  157.0360 C.ar    1  UNL1        0.0002
      6 C         139.6133  138.5112  158.1185 C.ar    1  UNL1        0.0372
      7 O         140.1817  140.1203  160.0776 O.3     1  UNL1       -0.4535
      8 C         138.8569  138.4926  164.0582 C.ar    1  UNL1        0.1470
      9 C         138.4221  139.8613  163.6253 C.ar    1  UNL1        0.0403
     10 C         138.8637  140.4039  162.2985 C.ar    1  UNL1        0.0406
     11 C         139.7401  139.5777  161.4045 C.ar    1  UNL1        0.1455
     12 C         140.1749  138.2089  161.8373 C.ar    1  UNL1        0.0406
     13 C         139.7332  137.6664  163.1642 C.ar    1  UNL1        0.0403
     14 O         138.4152  137.9500  165.3851 O.3     1  UNL1       -0.4045
     15 F         138.7718  139.5915  167.8708 F       1  UNL1       -0.1328
     16 C         138.5935  138.7707  166.6279 C.3     1  UNL1        0.5753
     17 F         140.0284  139.0116  166.2630 F       1  UNL1       -0.1328
     18 F         137.1587  138.5299  166.9928 F       1  UNL1       -0.1328
     19 C         141.9687  136.3708  155.7477 C.3     1  UNL1        0.0992
     20 N         142.3939  134.9744  156.0931 N.3     1  UNL1       -0.2688
     21 C         143.5641  134.7504  157.0044 C.3     1  UNL1        0.0748
     22 C         143.9893  133.3540  157.3498 C.3     1  UNL1        0.0446
     23 C         143.2442  132.1815  156.7839 C.3     1  UNL1        0.0954
     24 C         144.4144  131.9576  157.6952 C.3     1  UNL1        0.0274
     25 C         144.8395  130.5612  158.0405 C.3     1  UNL1        0.0050
     26 C         144.0944  129.3887  157.4746 C.3     1  UNL1        0.0321
     27 C         142.9242  129.6127  156.5633 C.3     1  UNL1        0.1419
     28 O         142.4991  131.0091  156.2180 O.3     1  UNL1       -0.3584
     29 C         142.0739  132.4056  155.8726 C.3     1  UNL1        0.0446
     30 C         141.6488  133.8019  155.5272 C.3     1  UNL1        0.0748
@<TRIPOS>BOND
     1    15    16    1
     2    16    17    1
     3    16    18    1
     4    16    14    1
     5    14     8    1
     6     8     9   ar
     7     9    10   ar
     8    10    11   ar
     9    11     7    1
    10     7     1    1
    11     1     2   ar
    12     2     3   ar
    13     3     4   ar
    14     4    19    1
    15    19    20    1
    16    20    21    1
    17    21    22    1
    18    22    23    1
    19    23    24    1
    20    24    25    1
    21    25    26    1
    22    26    27    1
    23    27    28    1
    24    23    29    1
    25    29    30    1
    26     4     5   ar
    27     5     6   ar
    28    11    12   ar
    29    12    13   ar
    30    13     8   ar
    31     6     1   ar
    32    30    20    1
    33    28    23    1
@<TRIPOS>MOLECULE
*****
 30 33 0 0 0
SMALL
GASTEIGER

@<TRIPOS>ATOM
      1 C         138.7984  139.2666  161.2647 C.ar    1  UNL1        0.1453
      2 C         138.2118  140.3553  162.1136 C.ar    1  UNL1        0.0372
      3 C         138.1158  140.1779  163.6000 C.ar    1  UNL1        0.0002
      4 C         138.6063  138.9118  164.2375 C.ar    1  UNL1       -0.0059
      5 C         139.1929  137.8231  163.3885 C.ar    1  UNL1        0.0002
      6 C         139.2889  138.0004  161.9022 C.ar    1  UNL1        0.0372
      7 O         138.8944  139.4439  159.7783 O.3     1  UNL1       -0.4535
      8 C         142.4107  137.7569  157.5335 C.ar    1  UNL1        0.1470
      9 C         142.6340  138.5895  158.7610 C.ar    1  UNL1        0.0403
     10 C         141.4619  139.1519  159.5093 C.ar    1  UNL1        0.0406
     11 C         140.0665  138.8816  159.0301 C.ar    1  UNL1        0.1455
     12 C         139.8432  138.0490  157.8025 C.ar    1  UNL1        0.0406
     13 C         141.0153  137.4867  157.0543 C.ar    1  UNL1        0.0403
     14 O         143.5828  137.1946  156.7852 O.3     1  UNL1       -0.4045
     15 F         143.4048  134.4668  155.5493 F       1  UNL1       -0.1328
     16 C         143.4938  135.8307  156.1673 C.3     1  UNL1        0.5753
     17 F         143.6225  136.4405  154.8029 F       1  UNL1       -0.1328
     18 F         143.3651  135.2209  157.5316 F       1  UNL1       -0.1328
     19 C         138.5103  138.7344  165.7238 C.3     1  UNL1        0.0992
     20 N         139.4132  139.5153  166.6322 N.3     1  UNL1       -0.2688
     21 C         140.7115  140.0585  166.1134 C.3     1  UNL1        0.0748
     22 C         141.6143  140.8394  167.0218 C.3     1  UNL1        0.0446
     23 C         141.2188  141.0770  168.4491 C.3     1  UNL1        0.0954
     24 C         142.5171  141.6202  167.9302 C.3     1  UNL1        0.0274
     25 C         143.4199  142.4011  168.8386 C.3     1  UNL1        0.0050
     26 C         143.0243  142.6387  170.2659 C.3     1  UNL1        0.0321
     27 C         141.7260  142.0955  170.7847 C.3     1  UNL1        0.1419
     28 O         140.8232  141.3147  169.8763 O.3     1  UNL1       -0.3584
     29 C         139.9204  140.5338  168.9679 C.3     1  UNL1        0.0446
     30 C         139.0176  139.7529  168.0595 C.3     1  UNL1        0.0748
@<TRIPOS>BOND
     1    15    16    1
     2    16    17    1
     3    16    18    1
     4    16    14    1
     5    14     8    1
     6     8     9   ar
     7     9    10   ar
     8    10    11   ar
     9    11     7    1
    10     7     1    1
    11     1     2   ar
    12     2     3   ar
    13     3     4   ar
    14     4    19    1
    15    19    20    1
    16    20    21    1
    17    21    22    1
    18    22    23    1
    19    23    24    1
    20    24    25    1
    21    25    26    1
    22    26    27    1
    23    27    28    1
    24    23    29    1
    25    29    30    1
    26     4     5   ar
    27     5     6   ar
    28    11    12   ar
    29    12    13   ar
    30    13     8   ar
    31     6     1   ar
    32    30    20    1
    33    28    23    1
@<TRIPOS>MOLECULE
*****
 30 33 0 0 0
SMALL
GASTEIGER

@<TRIPOS>ATOM
      1 C         138.9979  138.9568  163.4161 C.ar    1  UNL1        0.1453
      2 C         139.3857  137.8616  162.4674 C.ar    1  UNL1        0.0372
      3 C         139.8266  138.1978  161.0736 C.ar    1  UNL1        0.0002
      4 C         139.8797  139.6293  160.6286 C.ar    1  UNL1       -0.0059
      5 C         139.4919  140.7245  161.5773 C.ar    1  UNL1        0.0002
      6 C         139.0510  140.3883  162.9711 C.ar    1  UNL1        0.0372
      7 O         138.5570  138.6206  164.8099 O.3     1  UNL1       -0.4535
      8 C         140.9025  140.1357  168.3388 C.ar    1  UNL1        0.1470
      9 C         141.6109  139.7722  167.0676 C.ar    1  UNL1        0.0403
     10 C         140.8291  139.2672  165.8913 C.ar    1  UNL1        0.0406
     11 C         139.3389  139.1256  165.9862 C.ar    1  UNL1        0.1455
     12 C         138.6304  139.4891  167.2574 C.ar    1  UNL1        0.0406
     13 C         139.4122  139.9941  168.4337 C.ar    1  UNL1        0.0403
     14 O         141.6843  140.6407  169.5151 O.3     1  UNL1       -0.4045
     15 F         143.8491  142.6786  169.1142 F       1  UNL1       -0.1328
     16 C         142.7667  141.6596  169.3147 C.3     1  UNL1        0.5753
     17 F         143.7268  140.7880  170.0686 F       1  UNL1       -0.1328
     18 F         141.8066  142.5312  168.5608 F       1  UNL1       -0.1328
     19 C         140.3205  139.9655  159.2349 C.3     1  UNL1        0.0992
     20 N         140.8022  138.8802  158.3182 N.3     1  UNL1       -0.2688
     21 C         142.2371  138.4453  158.3597 C.3     1  UNL1        0.0748
     22 C         142.7187  137.3600  157.4430 C.3     1  UNL1        0.0446
     23 C         141.7653  136.7096  156.4849 C.3     1  UNL1        0.0954
     24 C         143.2003  136.2747  156.5264 C.3     1  UNL1        0.0274
     25 C         143.6818  135.1894  155.6098 C.3     1  UNL1        0.0050
     26 C         142.7284  134.5390  154.6516 C.3     1  UNL1        0.0321
     27 C         141.2935  134.9739  154.6101 C.3     1  UNL1        0.1419
     28 O         140.8119  136.0592  155.5268 O.3     1  UNL1       -0.3584
     29 C         140.3303  137.1445  156.4434 C.3     1  UNL1        0.0446
     30 C         139.8488  138.2298  157.3601 C.3     1  UNL1        0.0748
@<TRIPOS>BOND
     1    15    16    1
     2    16    17    1
     3    16    18    1
     4    16    14    1
     5    14     8    1
     6     8     9   ar
     7     9    10   ar
     8    10    11   ar
     9    11     7    1
    10     7     1    1
    11     1     2   ar
    12     2     3   ar
    13     3     4   ar
    14     4    19    1
    15    19    20    1
    16    20    21    1
    17    21    22    1
    18    22    23    1
    19    23    24    1
    20    24    25    1
    21    25    26    1
    22    26    27    1
    23    27    28    1
    24    23    29    1
    25    29    30    1
    26     4     5   ar
    27     5     6   ar
    28    11    12   ar
    29    12    13   ar
    30    13     8   ar
    31     6     1   ar
    32    30    20    1
    33    28    23    1
@<TRIPOS>MOLECULE
*****
 30 33 0 0 0
SMALL
GASTEIGER

@<TRIPOS>ATOM
      1 C         142.2493  136.9406  156.7012 C.ar    1  UNL1        0.1453
      2 C         140.7950  136.8863  156.3379 C.ar    1  UNL1        0.0372
      3 C         139.8076  137.7508  157.0645 C.ar    1  UNL1        0.0002
      4 C         140.2746  138.6695  158.1543 C.ar    1  UNL1       -0.0059
      5 C         141.7290  138.7239  158.5176 C.ar    1  UNL1        0.0002
      6 C         142.7163  137.8594  157.7911 C.ar    1  UNL1        0.0372
      7 O         143.2366  136.0761  155.9747 O.3     1  UNL1       -0.4535
      8 C         142.0857  131.9100  154.7222 C.ar    1  UNL1        0.1470
      9 C         142.0926  133.0211  153.7146 C.ar    1  UNL1        0.0403
     10 C         142.4762  134.4098  154.1321 C.ar    1  UNL1        0.0406
     11 C         142.8530  134.6874  155.5572 C.ar    1  UNL1        0.1455
     12 C         142.8460  133.5763  156.5648 C.ar    1  UNL1        0.0406
     13 C         142.4624  132.1876  156.1473 C.ar    1  UNL1        0.0403
     14 O         141.7020  130.5213  154.3047 O.3     1  UNL1       -0.4045
     15 F         139.2348  129.2427  155.4354 F       1  UNL1       -0.1328
     16 C         140.4685  129.8820  154.8700 C.3     1  UNL1        0.5753
     17 F         139.6158  130.7653  154.0082 F       1  UNL1       -0.1328
     18 F         141.3211  128.9988  155.7318 F       1  UNL1       -0.1328
     19 C         139.2873  139.5340  158.8808 C.3     1  UNL1        0.0992
     20 N         139.0965  139.3743  160.3601 N.3     1  UNL1       -0.2688
     21 C         139.2442  138.0228  160.9937 C.3     1  UNL1        0.0748
     22 C         139.0534  137.8630  162.4730 C.3     1  UNL1        0.0446
     23 C         138.7149  139.0549  163.3185 C.3     1  UNL1        0.0954
     24 C         138.8626  137.7034  163.9522 C.3     1  UNL1        0.0274
     25 C         138.6718  137.5437  165.4314 C.3     1  UNL1        0.0050
     26 C         138.3333  138.7356  166.2769 C.3     1  UNL1        0.0321
     27 C         138.1856  140.0871  165.6433 C.3     1  UNL1        0.1419
     28 O         138.3764  140.2467  164.1641 O.3     1  UNL1       -0.3584
     29 C         138.5672  140.4065  162.6848 C.3     1  UNL1        0.0446
     30 C         138.7580  140.5661  161.2056 C.3     1  UNL1        0.0748
@<TRIPOS>BOND
     1    15    16    1
     2    16    17    1
     3    16    18    1
     4    16    14    1
     5    14     8    1
     6     8     9   ar
     7     9    10   ar
     8    10    11   ar
     9    11     7    1
    10     7     1    1
    11     1     2   ar
    12     2     3   ar
    13     3     4   ar
    14     4    19    1
    15    19    20    1
    16    20    21    1
    17    21    22    1
    18    22    23    1
    19    23    24    1
    20    24    25    1
    21    25    26    1
    22    26    27    1
    23    27    28    1
    24    23    29    1
    25    29    30    1
    26     4     5   ar
    27     5     6   ar
    28    11    12   ar
    29    12    13   ar
    30    13     8   ar
    31     6     1   ar
    32    30    20    1
    33    28    23    1
@<TRIPOS>MOLECULE
*****
 30 33 0 0 0
SMALL
GASTEIGER

@<TRIPOS>ATOM
      1 C         143.8253  139.0774  162.3587 C.ar    1  UNL1        0.1453
      2 C         142.6539  138.1461  162.2564 C.ar    1  UNL1        0.0372
      3 C         141.8820  138.0498  160.9738 C.ar    1  UNL1        0.0002
      4 C         142.2816  138.8848  159.7935 C.ar    1  UNL1       -0.0059
      5 C         143.4530  139.8160  159.8958 C.ar    1  UNL1        0.0002
      6 C         144.2249  139.9124  161.1783 C.ar    1  UNL1        0.0372
      7 O         144.5972  139.1737  163.6412 O.3     1  UNL1       -0.4535
      8 C         142.5157  140.4178  167.4319 C.ar    1  UNL1        0.1470
      9 C         142.8549  141.4434  166.3913 C.ar    1  UNL1        0.0403
     10 C         143.5488  141.0287  165.1277 C.ar    1  UNL1        0.0406
     11 C         143.9033  139.5884  164.9048 C.ar    1  UNL1        0.1455
     12 C         143.5641  138.5628  165.9454 C.ar    1  UNL1        0.0406
     13 C         142.8703  138.9775  167.2090 C.ar    1  UNL1        0.0403
     14 O         141.8219  140.8325  168.6955 O.3     1  UNL1       -0.4045
     15 F         138.9792  140.0085  169.1858 F       1  UNL1       -0.1328
     16 C         140.4006  140.4205  168.9406 C.3     1  UNL1        0.5753
     17 F         140.8707  139.3735  169.9064 F       1  UNL1       -0.1328
     18 F         139.9305  141.4675  167.9749 F       1  UNL1       -0.1328
     19 C         141.5098  138.7884  158.5110 C.3     1  UNL1        0.0992
     20 N         141.6928  137.6010  157.6128 N.3     1  UNL1       -0.2688
     21 C         142.8582  136.6789  157.8167 C.3     1  UNL1        0.0748
     22 C         143.0412  135.4915  156.9186 C.3     1  UNL1        0.0446
     23 C         142.0588  135.2263  155.8165 C.3     1  UNL1        0.0954
     24 C         143.2242  134.3042  156.0204 C.3     1  UNL1        0.0274
     25 C         143.4072  133.1169  155.1223 C.3     1  UNL1        0.0050
     26 C         142.4248  132.8517  154.0202 C.3     1  UNL1        0.0321
     27 C         141.2595  133.7738  153.8162 C.3     1  UNL1        0.1419
     28 O         141.0765  134.9611  154.7144 O.3     1  UNL1       -0.3584
     29 C         140.8934  136.1485  155.6125 C.3     1  UNL1        0.0446
     30 C         140.7104  137.3358  156.5107 C.3     1  UNL1        0.0748
@<TRIPOS>BOND
     1    15    16    1
     2    16    17    1
     3    16    18    1
     4    16    14    1
     5    14     8    1
     6     8     9   ar
     7     9    10   ar
     8    10    11   ar
     9    11     7    1
    10     7     1    1
    11     1     2   ar
    12     2     3   ar
    13     3     4   ar
    14     4    19    1
    15    19    20    1
    16    20    21    1
    17    21    22    1
    18    22    23    1
    19    23    24    1
    20    24    25    1
    21    25    26    1
    22    26    27    1
    23    27    28    1
    24    23    29    1
    25    29    30    1
    26     4     5   ar
    27     5     6   ar
    28    11    12   ar
    29    12    13   ar
    30    13     8   ar
    31     6     1   ar
    32    30    20    1
    33    28    23    1
@<TRIPOS>MOLECULE
*****
 30 33 0 0 0
SMALL
GASTEIGER

@<TRIPOS>ATOM
      1 C         139.7234  138.0245  162.2438 C.ar    1  UNL1        0.1453
      2 C         139.1937  138.5861  160.9577 C.ar    1  UNL1        0.0372
      3 C         140.1081  138.7568  159.7809 C.ar    1  UNL1        0.0002
      4 C         141.5521  138.3660  159.8902 C.ar    1  UNL1       -0.0059
      5 C         142.0818  137.8044  161.1763 C.ar    1  UNL1        0.0002
      6 C         141.1675  137.6337  162.3531 C.ar    1  UNL1        0.0372
      7 O         138.8091  137.8538  163.4206 O.3     1  UNL1       -0.4535
      8 C         139.5459  140.1840  167.1991 C.ar    1  UNL1        0.1470
      9 C         140.3696  140.4585  165.9760 C.ar    1  UNL1        0.0403
     10 C         140.1240  139.6818  164.7165 C.ar    1  UNL1        0.0406
     11 C         139.0547  138.6305  164.6801 C.ar    1  UNL1        0.1455
     12 C         138.2310  138.3560  165.9032 C.ar    1  UNL1        0.0406
     13 C         138.4766  139.1327  167.1627 C.ar    1  UNL1        0.0403
     14 O         139.7915  140.9607  168.4586 O.3     1  UNL1       -0.4045
     15 F         139.8170  139.5534  171.1080 F       1  UNL1       -0.1328
     16 C         139.8043  140.2571  169.7833 C.3     1  UNL1        0.5753
     17 F         141.0372  139.5076  169.3733 F       1  UNL1       -0.1328
     18 F         138.5713  141.0066  170.1932 F       1  UNL1       -0.1328
     19 C         142.4664  138.5367  158.7134 C.3     1  UNL1        0.0992
     20 N         142.3431  137.6242  157.5292 N.3     1  UNL1       -0.2688
     21 C         142.9666  136.2605  157.5650 C.3     1  UNL1        0.0748
     22 C         142.8432  135.3481  156.3808 C.3     1  UNL1        0.0446
     23 C         142.0964  135.7995  155.1608 C.3     1  UNL1        0.0954
     24 C         142.7199  134.4357  155.1966 C.3     1  UNL1        0.0274
     25 C         142.5965  133.5234  154.0124 C.3     1  UNL1        0.0050
     26 C         141.8496  133.9748  152.7924 C.3     1  UNL1        0.0321
     27 C         141.2261  135.3386  152.7566 C.3     1  UNL1        0.1419
     28 O         141.3495  136.2509  153.9408 O.3     1  UNL1       -0.3584
     29 C         141.4728  137.1633  155.1250 C.3     1  UNL1        0.0446
     30 C         141.5962  138.0757  156.3092 C.3     1  UNL1        0.0748
@<TRIPOS>BOND
     1    15    16    1
     2    16    17    1
     3    16    18    1
     4    16    14    1
     5    14     8    1
     6     8     9   ar
     7     9    10   ar
     8    10    11   ar
     9    11     7    1
    10     7     1    1
    11     1     2   ar
    12     2     3   ar
    13     3     4   ar
    14     4    19    1
    15    19    20    1
    16    20    21    1
    17    21    22    1
    18    22    23    1
    19    23    24    1
    20    24    25    1
    21    25    26    1
    22    26    27    1
    23    27    28    1
    24    23    29    1
    25    29    30    1
    26     4     5   ar
    27     5     6   ar
    28    11    12   ar
    29    12    13   ar
    30    13     8   ar
    31     6     1   ar
    32    30    20    1
    33    28    23    1
