@<TRIPOS>MOLECULE
*****
 36 40 0 0 0
SMALL
GASTEIGER

@<TRIPOS>ATOM
      1 C         141.8076  137.5389  163.7766 C.3     1  UNL1        0.0768
      2 N         142.8118  138.5567  163.3232 N.3     1  UNL1       -0.2724
      3 C         143.0614  138.9784  161.9054 C.3     1  UNL1        0.0721
      4 C         144.1466  140.0139  161.9139 C.3     1  UNL1        0.0187
      5 C         144.5678  140.2322  163.3369 C.3     1  UNL1        0.0178
      6 C         143.7428  139.3316  164.2079 C.3     1  UNL1        0.0721
      7 C         145.6277  141.1840  163.8065 C.3     1  UNL1        0.0077
      8 C         145.2389  142.4984  164.4157 C.3     1  UNL1        0.0459
      9 C         143.8537  143.0378  164.2145 C.ar    1  UNL1        0.0603
     10 C         142.7967  142.7954  165.2508 C.ar    1  UNL1        0.0145
     11 C         141.4115  143.3348  165.0497 C.ar    1  UNL1       -0.0003
     12 C         141.0834  144.1165  163.8122 C.ar    1  UNL1        0.0092
     13 C         142.1404  144.3588  162.7759 C.ar    1  UNL1        0.1240
     14 N         143.5256  143.8194  162.9770 N.ar    1  UNL1       -0.2356
     15 N         141.8123  145.1405  161.5384 N.pl3   1  UNL1       -0.3184
     16 C         140.4272  145.6798  161.3373 C.3     1  UNL1        0.0885
     17 C         139.3702  145.4375  162.3736 C.3     1  UNL1        0.0260
     18 C         139.6983  144.6558  163.6111 C.3     1  UNL1        0.0309
     19 H         142.5061  145.2995  160.8582 H       1  UNL1        0.1482
     20 C         140.3564  137.9068  163.8696 C.3     1  UNL1        0.0439
     21 C         140.0475  140.0180  167.2160 C.ar    1  UNL1        0.0825
     22 C         138.7001  139.5769  167.7060 C.ar    1  UNL1        0.0191
     23 C         137.9049  138.5792  166.9173 C.ar    1  UNL1        0.0012
     24 C         138.4570  138.0225  165.6385 C.ar    1  UNL1       -0.0041
     25 C         139.8043  138.4635  165.1485 C.ar    1  UNL1       -0.0193
     26 C         140.5996  139.4613  165.9372 C.ar    1  UNL1        0.0149
     27 C         144.0242  142.3976  169.7466 C.3     1  UNL1        0.0540
     28 C         142.6706  142.1096  169.1679 C.ar    1  UNL1        0.0809
     29 C         141.4623  142.9927  169.2689 C.ar    1  UNL1        0.0371
     30 C         140.3327  142.3167  168.5500 C.ar    1  UNL1        0.1016
     31 N         140.8427  141.0157  168.0047 N.ar    1  UNL1       -0.2285
     32 N         142.2876  140.8877  168.3865 N.ar    1  UNL1       -0.1694
     33 C         139.4573  137.7180  162.6839 C.3     1  UNL1        0.0474
     34 C         138.8999  138.9122  161.9677 C.2     1  UNL1        0.0507
     35 O         137.4926  138.8862  161.4489 O.co2   1  UNL1       -0.5492
     36 O         139.7496  140.1325  161.7702 O.co2   1  UNL1       -0.5492
@<TRIPOS>UNITY_ATOM_ATTR
35 1
charge -1
@<TRIPOS>BOND
     1    27    28    1
     2    28    29   ar
     3    29    30   ar
     4    30    31   ar
     5    31    21    1
     6    21    22   ar
     7    22    23   ar
     8    23    24   ar
     9    24    25   ar
    10    25    20    1
    11    20    33    1
    12    33    34    1
    13    34    35   ar
    14    34    36   ar
    15    20     1    1
    16     1     2    1
    17     2     3    1
    18     3     4    1
    19     4     5    1
    20     5     7    1
    21     7     8    1
    22     8     9    1
    23     9    10   ar
    24    10    11   ar
    25    11    12   ar
    26    12    13   ar
    27    13    14   ar
    28    13    15    1
    29    15    16    1
    30    16    17    1
    31    17    18    1
    32     5     6    1
    33    25    26   ar
    34    31    32   ar
    35    32    28   ar
    36    26    21   ar
    37     6     2    1
    38    14     9   ar
    39    18    12    1
    40    15    19    1
@<TRIPOS>MOLECULE
*****
 36 40 0 0 0
SMALL
GASTEIGER

@<TRIPOS>ATOM
      1 C         142.0707  141.0052  168.3754 C.3     1  UNL1        0.0768
      2 N         142.7668  140.2412  167.2884 N.3     1  UNL1       -0.2724
      3 C         143.0627  138.7706  167.2947 C.3     1  UNL1        0.0721
      4 C         143.7681  138.4342  166.0144 C.3     1  UNL1        0.0187
      5 C         143.9082  139.6968  165.2167 C.3     1  UNL1        0.0178
      6 C         143.2894  140.8136  166.0041 C.3     1  UNL1        0.0721
      7 C         144.5538  139.8209  163.8685 C.3     1  UNL1        0.0077
      8 C         144.0378  139.0156  162.7130 C.3     1  UNL1        0.0459
      9 C         142.5615  138.9193  162.4657 C.ar    1  UNL1        0.0603
     10 C         141.8145  137.6794  162.8588 C.ar    1  UNL1        0.0145
     11 C         140.3381  137.5831  162.6116 C.ar    1  UNL1       -0.0003
     12 C         139.6087  138.7268  161.9712 C.ar    1  UNL1        0.0092
     13 C         140.3557  139.9667  161.5781 C.ar    1  UNL1        0.1240
     14 N         141.8321  140.0630  161.8254 N.ar    1  UNL1       -0.2356
     15 N         139.6264  141.1104  160.9377 N.pl3   1  UNL1       -0.3184
     16 C         138.1501  141.0141  160.6904 C.3     1  UNL1        0.0885
     17 C         137.4031  139.7741  161.0835 C.3     1  UNL1        0.0260
     18 C         138.1324  138.6305  161.7239 C.3     1  UNL1        0.0309
     19 H         140.1167  141.9242  160.6797 H       1  UNL1        0.1482
     20 C         140.5719  141.0440  168.4232 C.3     1  UNL1        0.0439
     21 C         138.9952  141.8920  164.8813 C.ar    1  UNL1        0.0825
     22 C         138.1888  140.6532  164.6260 C.ar    1  UNL1        0.0191
     23 C         138.1768  139.5447  165.6364 C.ar    1  UNL1        0.0012
     24 C         138.9711  139.6750  166.9021 C.ar    1  UNL1       -0.0041
     25 C         139.7775  140.9138  167.1574 C.ar    1  UNL1       -0.0193
     26 C         139.7895  142.0223  166.1470 C.ar    1  UNL1        0.0149
     27 C         140.6042  145.2920  161.1755 C.3     1  UNL1        0.0540
     28 C         139.7467  144.5634  162.1675 C.ar    1  UNL1        0.0809
     29 C         138.3046  144.8497  162.4645 C.ar    1  UNL1        0.0371
     30 C         137.8475  143.8838  163.5172 C.ar    1  UNL1        0.1016
     31 N         139.0072  143.0006  163.8709 N.ar    1  UNL1       -0.2285
     32 N         140.1809  143.4206  163.0367 N.ar    1  UNL1       -0.1694
     33 C         139.8675  141.2130  169.7367 C.3     1  UNL1        0.0474
     34 C         140.1184  142.4344  170.5706 C.2     1  UNL1        0.0507
     35 O         140.5195  142.2911  172.0089 O.co2   1  UNL1       -0.5492
     36 O         139.9681  143.7989  169.9662 O.co2   1  UNL1       -0.5492
@<TRIPOS>UNITY_ATOM_ATTR
35 1
charge -1
@<TRIPOS>BOND
     1    27    28    1
     2    28    29   ar
     3    29    30   ar
     4    30    31   ar
     5    31    21    1
     6    21    22   ar
     7    22    23   ar
     8    23    24   ar
     9    24    25   ar
    10    25    20    1
    11    20    33    1
    12    33    34    1
    13    34    35   ar
    14    34    36   ar
    15    20     1    1
    16     1     2    1
    17     2     3    1
    18     3     4    1
    19     4     5    1
    20     5     7    1
    21     7     8    1
    22     8     9    1
    23     9    10   ar
    24    10    11   ar
    25    11    12   ar
    26    12    13   ar
    27    13    14   ar
    28    13    15    1
    29    15    16    1
    30    16    17    1
    31    17    18    1
    32     5     6    1
    33    25    26   ar
    34    31    32   ar
    35    32    28   ar
    36    26    21   ar
    37     6     2    1
    38    14     9   ar
    39    18    12    1
    40    15    19    1
@<TRIPOS>MOLECULE
*****
 36 40 0 0 0
SMALL
GASTEIGER

@<TRIPOS>ATOM
      1 C         142.4215  141.2654  167.8317 C.3     1  UNL1        0.0768
      2 N         143.1460  141.0687  166.5331 N.3     1  UNL1       -0.2724
      3 C         143.2836  139.7744  165.7875 C.3     1  UNL1        0.0721
      4 C         144.0828  140.0375  164.5457 C.3     1  UNL1        0.0187
      5 C         144.4391  141.4944  164.5238 C.3     1  UNL1        0.0178
      6 C         143.8601  142.1317  165.7521 C.3     1  UNL1        0.0721
      7 C         145.2347  142.1916  163.4604 C.3     1  UNL1        0.0077
      8 C         144.5344  142.9987  162.4078 C.3     1  UNL1        0.0459
      9 C         143.1563  143.5324  162.6651 C.ar    1  UNL1        0.0603
     10 C         142.9782  144.8168  163.4190 C.ar    1  UNL1        0.0145
     11 C         141.6002  145.3506  163.6763 C.ar    1  UNL1       -0.0003
     12 C         140.4002  144.5999  163.1797 C.ar    1  UNL1        0.0092
     13 C         140.5783  143.3154  162.4257 C.ar    1  UNL1        0.1240
     14 N         141.9564  142.7817  162.1684 N.ar    1  UNL1       -0.2356
     15 N         139.3785  142.5647  161.9291 N.pl3   1  UNL1       -0.3184
     16 C         138.0005  143.0984  162.1864 C.3     1  UNL1        0.0885
     17 C         137.8224  144.3829  162.9404 C.3     1  UNL1        0.0260
     18 C         139.0223  145.1336  163.4370 C.3     1  UNL1        0.0309
     19 H         139.4954  141.7216  161.4343 H       1  UNL1        0.1482
     20 C         140.9713  141.6488  167.8309 C.3     1  UNL1        0.0439
     21 C         138.7317  139.3630  165.4835 C.ar    1  UNL1        0.0825
     22 C         137.8606  138.6828  166.4977 C.ar    1  UNL1        0.0191
     23 C         138.0264  138.9912  167.9562 C.ar    1  UNL1        0.0012
     24 C         139.0633  139.9798  168.4006 C.ar    1  UNL1       -0.0041
     25 C         139.9344  140.6601  167.3864 C.ar    1  UNL1       -0.0193
     26 C         139.7686  140.3517  165.9279 C.ar    1  UNL1        0.0149
     27 C         137.3904  139.7448  160.3907 C.3     1  UNL1        0.0540
     28 C         137.9494  139.2301  161.6841 C.ar    1  UNL1        0.0809
     29 C         138.6722  137.9300  161.8768 C.ar    1  UNL1        0.0371
     30 C         139.0533  137.8215  163.3235 C.ar    1  UNL1        0.1016
     31 N         138.5659  139.0546  164.0250 N.ar    1  UNL1       -0.2285
     32 N         137.8837  139.9252  163.0117 N.ar    1  UNL1       -0.1694
     33 C         140.5580  143.0208  168.2744 C.3     1  UNL1        0.0474
     34 C         140.4412  143.3328  169.7370 C.2     1  UNL1        0.0507
     35 O         140.6145  142.2425  170.7526 O.co2   1  UNL1       -0.5492
     36 O         140.1513  144.7349  170.1840 O.co2   1  UNL1       -0.5492
@<TRIPOS>UNITY_ATOM_ATTR
35 1
charge -1
@<TRIPOS>BOND
     1    27    28    1
     2    28    29   ar
     3    29    30   ar
     4    30    31   ar
     5    31    21    1
     6    21    22   ar
     7    22    23   ar
     8    23    24   ar
     9    24    25   ar
    10    25    20    1
    11    20    33    1
    12    33    34    1
    13    34    35   ar
    14    34    36   ar
    15    20     1    1
    16     1     2    1
    17     2     3    1
    18     3     4    1
    19     4     5    1
    20     5     7    1
    21     7     8    1
    22     8     9    1
    23     9    10   ar
    24    10    11   ar
    25    11    12   ar
    26    12    13   ar
    27    13    14   ar
    28    13    15    1
    29    15    16    1
    30    16    17    1
    31    17    18    1
    32     5     6    1
    33    25    26   ar
    34    31    32   ar
    35    32    28   ar
    36    26    21   ar
    37     6     2    1
    38    14     9   ar
    39    18    12    1
    40    15    19    1
@<TRIPOS>MOLECULE
*****
 36 40 0 0 0
SMALL
GASTEIGER

@<TRIPOS>ATOM
      1 C         138.0787  142.7323  164.7082 C.3     1  UNL1        0.0768
      2 N         138.1831  141.3783  164.0712 N.3     1  UNL1       -0.2724
      3 C         137.7136  141.0132  162.6941 C.3     1  UNL1        0.0721
      4 C         138.0157  139.5609  162.4712 C.3     1  UNL1        0.0187
      5 C         138.6718  139.0285  163.7105 C.3     1  UNL1        0.0178
      6 C         138.7753  140.1516  164.6994 C.3     1  UNL1        0.0721
      7 C         139.1419  137.6201  163.9236 C.3     1  UNL1        0.0077
      8 C         140.4797  137.1887  163.4000 C.3     1  UNL1        0.0459
      9 C         141.6789  138.0698  163.5894 C.ar    1  UNL1        0.0603
     10 C         142.4864  137.9766  164.8500 C.ar    1  UNL1        0.0145
     11 C         143.6855  138.8576  165.0394 C.ar    1  UNL1       -0.0003
     12 C         144.0772  139.8319  163.9681 C.ar    1  UNL1        0.0092
     13 C         143.2696  139.9250  162.7075 C.ar    1  UNL1        0.1240
     14 N         142.0705  139.0439  162.5181 N.ar    1  UNL1       -0.2356
     15 N         143.6612  140.8992  161.6362 N.pl3   1  UNL1       -0.3184
     16 C         144.8603  141.7802  161.8256 C.3     1  UNL1        0.0885
     17 C         145.6679  141.6870  163.0862 C.3     1  UNL1        0.0260
     18 C         145.2763  140.7129  164.1575 C.3     1  UNL1        0.0309
     19 H         143.1312  140.9603  160.8088 H       1  UNL1        0.1482
     20 C         139.2579  143.6593  164.6971 C.3     1  UNL1        0.0439
     21 C         141.8818  141.8706  167.0775 C.ar    1  UNL1        0.0825
     22 C         143.1743  142.3395  166.4777 C.ar    1  UNL1        0.0191
     23 C         143.1613  143.2483  165.2845 C.ar    1  UNL1        0.0012
     24 C         141.8559  143.6882  164.6910 C.ar    1  UNL1       -0.0041
     25 C         140.5634  143.2194  165.2907 C.ar    1  UNL1       -0.0193
     26 C         140.5764  142.3106  166.4840 C.ar    1  UNL1        0.0149
     27 C         143.0924  137.9270  170.3735 C.3     1  UNL1        0.0540
     28 C         142.4512  139.1492  169.7858 C.ar    1  UNL1        0.0809
     29 C         141.3783  139.9775  170.4283 C.ar    1  UNL1        0.0371
     30 C         141.0344  141.0977  169.4920 C.ar    1  UNL1        0.1016
     31 N         141.8948  140.9618  168.2707 N.ar    1  UNL1       -0.2285
     32 N         142.7704  139.7576  168.4523 N.ar    1  UNL1       -0.1694
     33 C         139.1317  145.0262  164.0925 C.3     1  UNL1        0.0474
     34 C         139.2140  145.1988  162.6047 C.2     1  UNL1        0.0507
     35 O         138.5288  144.2205  161.6972 O.co2   1  UNL1       -0.5492
     36 O         139.9815  146.3495  162.0245 O.co2   1  UNL1       -0.5492
@<TRIPOS>UNITY_ATOM_ATTR
35 1
charge -1
@<TRIPOS>BOND
     1    27    28    1
     2    28    29   ar
     3    29    30   ar
     4    30    31   ar
     5    31    21    1
     6    21    22   ar
     7    22    23   ar
     8    23    24   ar
     9    24    25   ar
    10    25    20    1
    11    20    33    1
    12    33    34    1
    13    34    35   ar
    14    34    36   ar
    15    20     1    1
    16     1     2    1
    17     2     3    1
    18     3     4    1
    19     4     5    1
    20     5     7    1
    21     7     8    1
    22     8     9    1
    23     9    10   ar
    24    10    11   ar
    25    11    12   ar
    26    12    13   ar
    27    13    14   ar
    28    13    15    1
    29    15    16    1
    30    16    17    1
    31    17    18    1
    32     5     6    1
    33    25    26   ar
    34    31    32   ar
    35    32    28   ar
    36    26    21   ar
    37     6     2    1
    38    14     9   ar
    39    18    12    1
    40    15    19    1
@<TRIPOS>MOLECULE
*****
 36 40 0 0 0
SMALL
GASTEIGER

@<TRIPOS>ATOM
      1 C         138.4750  138.8620  164.3263 C.3     1  UNL1        0.0768
      2 N         138.1934  140.2795  163.9246 N.3     1  UNL1       -0.2724
      3 C         137.7929  140.7452  162.5561 C.3     1  UNL1        0.0721
      4 C         137.6148  142.2337  162.6067 C.3     1  UNL1        0.0187
      5 C         137.9052  142.6880  164.0064 C.3     1  UNL1        0.0178
      6 C         138.2628  141.4802  164.8209 C.3     1  UNL1        0.0721
      7 C         137.8480  144.1018  164.5042 C.3     1  UNL1        0.0077
      8 C         139.0931  144.7712  165.0059 C.3     1  UNL1        0.0459
      9 C         140.4237  144.4277  164.4044 C.ar    1  UNL1        0.0603
     10 C         140.9130  145.1670  163.1945 C.ar    1  UNL1        0.0145
     11 C         142.2435  144.8237  162.5930 C.ar    1  UNL1       -0.0003
     12 C         143.0848  143.7409  163.2015 C.ar    1  UNL1        0.0092
     13 C         142.5954  143.0017  164.4114 C.ar    1  UNL1        0.1240
     14 N         141.2648  143.3451  165.0129 N.ar    1  UNL1       -0.2356
     15 N         143.4365  141.9190  165.0199 N.pl3   1  UNL1       -0.3184
     16 C         144.7670  141.5756  164.4184 C.3     1  UNL1        0.0885
     17 C         145.2564  142.3149  163.2085 C.3     1  UNL1        0.0260
     18 C         144.4153  143.3976  162.6000 C.3     1  UNL1        0.0309
     19 H         143.1153  141.4338  165.8140 H       1  UNL1        0.1482
     20 C         139.8615  138.3056  164.1914 C.3     1  UNL1        0.0439
     21 C         141.6180  139.8815  167.3823 C.ar    1  UNL1        0.0825
     22 C         142.9808  139.2615  167.2909 C.ar    1  UNL1        0.0191
     23 C         143.3038  138.3228  166.1664 C.ar    1  UNL1        0.0012
     24 C         142.2640  138.0042  165.1333 C.ar    1  UNL1       -0.0041
     25 C         140.9012  138.6243  165.2247 C.ar    1  UNL1       -0.0193
     26 C         140.5782  139.5629  166.3492 C.ar    1  UNL1        0.0149
     27 C         140.3571  144.2435  170.0777 C.3     1  UNL1        0.0540
     28 C         140.7154  142.8252  169.7457 C.ar    1  UNL1        0.0809
     29 C         140.8802  141.7043  170.7288 C.ar    1  UNL1        0.0371
     30 C         141.2384  140.4651  169.9631 C.ar    1  UNL1        0.1016
     31 N         141.2949  140.8202  168.5068 N.ar    1  UNL1       -0.2285
     32 N         140.9717  142.2788  168.3725 N.ar    1  UNL1       -0.1694
     33 C         140.2082  137.4306  163.0235 C.3     1  UNL1        0.0474
     34 C         140.6033  138.0482  161.7149 C.2     1  UNL1        0.0507
     35 O         142.0404  138.3853  161.4482 O.co2   1  UNL1       -0.5492
     36 O         139.5613  138.3286  160.6730 O.co2   1  UNL1       -0.5492
@<TRIPOS>UNITY_ATOM_ATTR
35 1
charge -1
@<TRIPOS>BOND
     1    27    28    1
     2    28    29   ar
     3    29    30   ar
     4    30    31   ar
     5    31    21    1
     6    21    22   ar
     7    22    23   ar
     8    23    24   ar
     9    24    25   ar
    10    25    20    1
    11    20    33    1
    12    33    34    1
    13    34    35   ar
    14    34    36   ar
    15    20     1    1
    16     1     2    1
    17     2     3    1
    18     3     4    1
    19     4     5    1
    20     5     7    1
    21     7     8    1
    22     8     9    1
    23     9    10   ar
    24    10    11   ar
    25    11    12   ar
    26    12    13   ar
    27    13    14   ar
    28    13    15    1
    29    15    16    1
    30    16    17    1
    31    17    18    1
    32     5     6    1
    33    25    26   ar
    34    31    32   ar
    35    32    28   ar
    36    26    21   ar
    37     6     2    1
    38    14     9   ar
    39    18    12    1
    40    15    19    1
@<TRIPOS>MOLECULE
*****
 36 40 0 0 0
SMALL
GASTEIGER

@<TRIPOS>ATOM
      1 C         143.1404  138.4237  163.1442 C.3     1  UNL1        0.0768
      2 N         141.6909  138.1008  163.3556 N.3     1  UNL1       -0.2724
      3 C         140.6889  137.7989  162.2809 C.3     1  UNL1        0.0721
      4 C         139.3676  137.5347  162.9399 C.3     1  UNL1        0.0187
      5 C         139.5529  137.6734  164.4219 C.3     1  UNL1        0.0178
      6 C         140.9888  138.0233  164.6788 C.3     1  UNL1        0.0721
      7 C         138.4892  137.4938  165.4641 C.3     1  UNL1        0.0077
      8 C         138.0335  138.6667  166.2805 C.3     1  UNL1        0.0459
      9 C         138.4945  140.0500  165.9286 C.ar    1  UNL1        0.0603
     10 C         139.6250  140.6796  166.6873 C.ar    1  UNL1        0.0145
     11 C         140.0861  142.0628  166.3354 C.ar    1  UNL1       -0.0003
     12 C         139.4167  142.8167  165.2246 C.ar    1  UNL1        0.0092
     13 C         138.2862  142.1871  164.4658 C.ar    1  UNL1        0.1240
     14 N         137.8252  140.8038  164.8178 N.ar    1  UNL1       -0.2356
     15 N         137.6169  142.9409  163.3551 N.pl3   1  UNL1       -0.3184
     16 C         138.0779  144.3241  163.0032 C.3     1  UNL1        0.0885
     17 C         139.2084  144.9537  163.7620 C.3     1  UNL1        0.0260
     18 C         139.8777  144.1999  164.8727 C.3     1  UNL1        0.0309
     19 H         136.8749  142.5277  162.8571 H       1  UNL1        0.1482
     20 C         143.8367  139.3835  164.0627 C.3     1  UNL1        0.0439
     21 C         142.6760  142.8625  162.5462 C.ar    1  UNL1        0.0825
     22 C         143.2407  143.8153  163.5579 C.ar    1  UNL1        0.0191
     23 C         144.0040  143.2908  164.7378 C.ar    1  UNL1        0.0012
     24 C         144.2027  141.8136  164.9061 C.ar    1  UNL1       -0.0041
     25 C         143.6380  140.8608  163.8944 C.ar    1  UNL1       -0.0193
     26 C         142.8747  141.3853  162.7145 C.ar    1  UNL1        0.0149
     27 C         141.3062  145.7024  158.3107 C.3     1  UNL1        0.0540
     28 C         141.2830  144.6923  159.4194 C.ar    1  UNL1        0.0809
     29 C         140.1930  143.6957  159.6816 C.ar    1  UNL1        0.0371
     30 C         140.5822  142.8890  160.8848 C.ar    1  UNL1        0.1016
     31 N         141.9127  143.3870  161.3663 N.ar    1  UNL1       -0.2285
     32 N         142.3458  144.5015  160.4606 N.ar    1  UNL1       -0.1694
     33 C         144.7318  138.8662  165.1496 C.3     1  UNL1        0.0474
     34 C         144.1400  138.3667  166.4343 C.2     1  UNL1        0.0507
     35 O         143.0335  139.1320  167.0978 O.co2   1  UNL1       -0.5492
     36 O         144.6546  137.1021  167.0554 O.co2   1  UNL1       -0.5492
@<TRIPOS>UNITY_ATOM_ATTR
35 1
charge -1
@<TRIPOS>BOND
     1    27    28    1
     2    28    29   ar
     3    29    30   ar
     4    30    31   ar
     5    31    21    1
     6    21    22   ar
     7    22    23   ar
     8    23    24   ar
     9    24    25   ar
    10    25    20    1
    11    20    33    1
    12    33    34    1
    13    34    35   ar
    14    34    36   ar
    15    20     1    1
    16     1     2    1
    17     2     3    1
    18     3     4    1
    19     4     5    1
    20     5     7    1
    21     7     8    1
    22     8     9    1
    23     9    10   ar
    24    10    11   ar
    25    11    12   ar
    26    12    13   ar
    27    13    14   ar
    28    13    15    1
    29    15    16    1
    30    16    17    1
    31    17    18    1
    32     5     6    1
    33    25    26   ar
    34    31    32   ar
    35    32    28   ar
    36    26    21   ar
    37     6     2    1
    38    14     9   ar
    39    18    12    1
    40    15    19    1
@<TRIPOS>MOLECULE
*****
 36 40 0 0 0
SMALL
GASTEIGER

@<TRIPOS>ATOM
      1 C         143.0915  138.0792  162.4619 C.3     1  UNL1        0.0768
      2 N         141.6606  137.9301  162.8863 N.3     1  UNL1       -0.2724
      3 C         140.4606  138.0294  161.9915 C.3     1  UNL1        0.0721
      4 C         139.2367  137.8162  162.8321 C.3     1  UNL1        0.0187
      5 C         139.6802  137.5851  164.2463 C.3     1  UNL1        0.0178
      6 C         141.1782  137.6555  164.2798 C.3     1  UNL1        0.0721
      7 C         138.7831  137.3286  165.4208 C.3     1  UNL1        0.0077
      8 C         138.0818  138.4718  166.0926 C.3     1  UNL1        0.0459
      9 C         138.4929  139.8833  165.7945 C.ar    1  UNL1        0.0603
     10 C         139.5558  140.5452  166.6204 C.ar    1  UNL1        0.0145
     11 C         139.9670  141.9566  166.3223 C.ar    1  UNL1       -0.0003
     12 C         139.3151  142.7062  165.1983 C.ar    1  UNL1        0.0092
     13 C         138.2522  142.0443  164.3724 C.ar    1  UNL1        0.1240
     14 N         137.8411  140.6328  164.6705 N.ar    1  UNL1       -0.2356
     15 N         137.6004  142.7939  163.2485 N.pl3   1  UNL1       -0.3184
     16 C         138.0115  144.2053  162.9505 C.3     1  UNL1        0.0885
     17 C         139.0744  144.8671  163.7764 C.3     1  UNL1        0.0260
     18 C         139.7262  144.1176  164.9003 C.3     1  UNL1        0.0309
     19 H         136.9027  142.3595  162.7064 H       1  UNL1        0.1482
     20 C         143.6027  139.4126  162.0030 C.3     1  UNL1        0.0439
     21 C         143.5238  141.4603  165.4017 C.ar    1  UNL1        0.0825
     22 C         143.9362  142.8206  164.9228 C.ar    1  UNL1        0.0191
     23 C         144.2375  143.0450  163.4706 C.ar    1  UNL1        0.0012
     24 C         144.1263  141.9090  162.4974 C.ar    1  UNL1       -0.0041
     25 C         143.7139  140.5487  162.9763 C.ar    1  UNL1       -0.0193
     26 C         143.4126  140.3243  164.4285 C.ar    1  UNL1        0.0149
     27 C         142.3143  139.1157  169.9757 C.3     1  UNL1        0.0540
     28 C         142.6666  140.1583  168.9564 C.ar    1  UNL1        0.0809
     29 C         142.8513  141.6232  169.2210 C.ar    1  UNL1        0.0371
     30 C         143.1948  142.2892  167.9216 C.ar    1  UNL1        0.1016
     31 N         143.2225  141.2360  166.8539 N.ar    1  UNL1       -0.2285
     32 N         142.8961  139.9190  167.4935 N.ar    1  UNL1       -0.1694
     33 C         144.0027  139.6101  160.5709 C.3     1  UNL1        0.0474
     34 C         143.0026  139.3875  159.4753 C.2     1  UNL1        0.0507
     35 O         143.2470  138.3295  158.4404 O.co2   1  UNL1       -0.5492
     36 O         141.7581  140.2227  159.4147 O.co2   1  UNL1       -0.5492
@<TRIPOS>UNITY_ATOM_ATTR
35 1
charge -1
@<TRIPOS>BOND
     1    27    28    1
     2    28    29   ar
     3    29    30   ar
     4    30    31   ar
     5    31    21    1
     6    21    22   ar
     7    22    23   ar
     8    23    24   ar
     9    24    25   ar
    10    25    20    1
    11    20    33    1
    12    33    34    1
    13    34    35   ar
    14    34    36   ar
    15    20     1    1
    16     1     2    1
    17     2     3    1
    18     3     4    1
    19     4     5    1
    20     5     7    1
    21     7     8    1
    22     8     9    1
    23     9    10   ar
    24    10    11   ar
    25    11    12   ar
    26    12    13   ar
    27    13    14   ar
    28    13    15    1
    29    15    16    1
    30    16    17    1
    31    17    18    1
    32     5     6    1
    33    25    26   ar
    34    31    32   ar
    35    32    28   ar
    36    26    21   ar
    37     6     2    1
    38    14     9   ar
    39    18    12    1
    40    15    19    1
@<TRIPOS>MOLECULE
*****
 36 40 0 0 0
SMALL
GASTEIGER

@<TRIPOS>ATOM
      1 C         144.1050  140.3612  162.0122 C.3     1  UNL1        0.0768
      2 N         142.7927  139.9558  161.4093 N.3     1  UNL1       -0.2724
      3 C         142.2440  140.4250  160.0944 C.3     1  UNL1        0.0721
      4 C         140.9108  139.7693  159.8880 C.3     1  UNL1        0.0187
      5 C         140.6355  138.8948  161.0752 C.3     1  UNL1        0.0178
      6 C         141.7986  139.0101  162.0154 C.3     1  UNL1        0.0721
      7 C         139.4120  138.0529  161.2853 C.3     1  UNL1        0.0077
      8 C         138.3361  138.5144  162.2229 C.3     1  UNL1        0.0459
      9 C         138.5501  139.7356  163.0674 C.ar    1  UNL1        0.0603
     10 C         138.7198  139.6007  164.5516 C.ar    1  UNL1        0.0145
     11 C         138.9338  140.8218  165.3961 C.ar    1  UNL1       -0.0003
     12 C         138.9782  142.1778  164.7562 C.ar    1  UNL1        0.0092
     13 C         138.8086  142.3127  163.2720 C.ar    1  UNL1        0.1240
     14 N         138.5945  141.0915  162.4275 N.ar    1  UNL1       -0.2356
     15 N         138.8530  143.6686  162.6321 N.pl3   1  UNL1       -0.3184
     16 C         139.0670  144.8897  163.4766 C.3     1  UNL1        0.0885
     17 C         139.2367  144.7548  164.9608 C.3     1  UNL1        0.0260
     18 C         139.1923  143.3989  165.6007 C.3     1  UNL1        0.0309
     19 H         138.7416  143.7571  161.6580 H       1  UNL1        0.1482
     20 C         144.1346  141.0996  163.3175 C.3     1  UNL1        0.0439
     21 C         142.4698  140.4005  166.8516 C.ar    1  UNL1        0.0825
     22 C         142.9436  139.0022  167.1165 C.ar    1  UNL1        0.0191
     23 C         143.8144  138.3030  166.1151 C.ar    1  UNL1        0.0012
     24 C         144.2113  139.0021  164.8488 C.ar    1  UNL1       -0.0041
     25 C         143.7375  140.4005  164.5839 C.ar    1  UNL1       -0.0193
     26 C         142.8668  141.0997  165.5853 C.ar    1  UNL1        0.0149
     27 C         140.3250  144.1458  169.8937 C.3     1  UNL1        0.0540
     28 C         140.6132  142.8212  169.2514 C.ar    1  UNL1        0.0809
     29 C         139.9048  141.5302  169.5368 C.ar    1  UNL1        0.0371
     30 C         140.5141  140.4662  168.6727 C.ar    1  UNL1        0.1016
     31 N         141.5990  141.0997  167.8530 N.ar    1  UNL1       -0.2285
     32 N         141.6602  142.5552  168.2107 N.ar    1  UNL1       -0.1694
     33 C         144.5611  142.5372  163.3564 C.3     1  UNL1        0.0474
     34 C         143.6117  143.6133  162.9198 C.2     1  UNL1        0.0507
     35 O         142.1444  143.3206  162.8123 O.co2   1  UNL1       -0.5492
     36 O         144.1295  144.9821  162.5907 O.co2   1  UNL1       -0.5492
@<TRIPOS>UNITY_ATOM_ATTR
35 1
charge -1
@<TRIPOS>BOND
     1    27    28    1
     2    28    29   ar
     3    29    30   ar
     4    30    31   ar
     5    31    21    1
     6    21    22   ar
     7    22    23   ar
     8    23    24   ar
     9    24    25   ar
    10    25    20    1
    11    20    33    1
    12    33    34    1
    13    34    35   ar
    14    34    36   ar
    15    20     1    1
    16     1     2    1
    17     2     3    1
    18     3     4    1
    19     4     5    1
    20     5     7    1
    21     7     8    1
    22     8     9    1
    23     9    10   ar
    24    10    11   ar
    25    11    12   ar
    26    12    13   ar
    27    13    14   ar
    28    13    15    1
    29    15    16    1
    30    16    17    1
    31    17    18    1
    32     5     6    1
    33    25    26   ar
    34    31    32   ar
    35    32    28   ar
    36    26    21   ar
    37     6     2    1
    38    14     9   ar
    39    18    12    1
    40    15    19    1
@<TRIPOS>MOLECULE
*****
 36 40 0 0 0
SMALL
GASTEIGER

@<TRIPOS>ATOM
      1 C         144.2109  142.5085  163.0767 C.3     1  UNL1        0.0768
      2 N         143.1159  143.5317  163.1398 N.3     1  UNL1       -0.2724
      3 C         143.1820  144.8512  163.8502 C.3     1  UNL1        0.0721
      4 C         141.8694  145.5500  163.6530 C.3     1  UNL1        0.0187
      5 C         140.9922  144.6625  162.8208 C.3     1  UNL1        0.0178
      6 C         141.7625  143.4151  162.5037 C.3     1  UNL1        0.0721
      7 C         139.5906  144.9686  162.3828 C.3     1  UNL1        0.0077
      8 C         138.4424  144.1776  162.9358 C.3     1  UNL1        0.0459
      9 C         138.6918  142.8520  163.5921 C.ar    1  UNL1        0.0603
     10 C         139.0546  142.7916  165.0463 C.ar    1  UNL1        0.0145
     11 C         139.3040  141.4661  165.7027 C.ar    1  UNL1       -0.0003
     12 C         139.1907  140.2009  164.9047 C.ar    1  UNL1        0.0092
     13 C         138.8280  140.2613  163.4505 C.ar    1  UNL1        0.1240
     14 N         138.5786  141.5869  162.7942 N.ar    1  UNL1       -0.2356
     15 N         138.7147  138.9963  162.6526 N.pl3   1  UNL1       -0.3184
     16 C         138.9642  137.6708  163.3089 C.3     1  UNL1        0.0885
     17 C         139.3269  137.6104  164.7631 C.3     1  UNL1        0.0260
     18 C         139.4402  138.8754  165.5611 C.3     1  UNL1        0.0309
     19 H         138.4767  139.0359  161.6981 H       1  UNL1        0.1482
     20 C         143.8774  141.0477  163.1468 C.3     1  UNL1        0.0439
     21 C         142.7912  140.6497  166.9432 C.ar    1  UNL1        0.0825
     22 C         142.8586  139.1597  167.1026 C.ar    1  UNL1        0.0191
     23 C         143.2655  138.2991  165.9435 C.ar    1  UNL1        0.0012
     24 C         143.6051  138.9284  164.6249 C.ar    1  UNL1       -0.0041
     25 C         143.5378  140.4184  164.4655 C.ar    1  UNL1       -0.0193
     26 C         143.1308  141.2791  165.6246 C.ar    1  UNL1        0.0149
     27 C         139.8620  143.1771  170.5367 C.3     1  UNL1        0.0540
     28 C         141.0379  142.6721  169.7541 C.ar    1  UNL1        0.0809
     29 C         142.4781  142.9976  170.0181 C.ar    1  UNL1        0.0371
     30 C         143.3102  142.2797  168.9972 C.ar    1  UNL1        0.1016
     31 N         142.3842  141.5104  168.1023 N.ar    1  UNL1       -0.2285
     32 N         140.9798  141.7530  168.5701 N.ar    1  UNL1       -0.1694
     33 C         143.8835  140.2162  161.8984 C.3     1  UNL1        0.0474
     34 C         142.6545  140.1405  161.0417 C.2     1  UNL1        0.0507
     35 O         142.5337  141.0095  159.8250 O.co2   1  UNL1       -0.5492
     36 O         141.5464  139.1958  161.4017 O.co2   1  UNL1       -0.5492
@<TRIPOS>UNITY_ATOM_ATTR
35 1
charge -1
@<TRIPOS>BOND
     1    27    28    1
     2    28    29   ar
     3    29    30   ar
     4    30    31   ar
     5    31    21    1
     6    21    22   ar
     7    22    23   ar
     8    23    24   ar
     9    24    25   ar
    10    25    20    1
    11    20    33    1
    12    33    34    1
    13    34    35   ar
    14    34    36   ar
    15    20     1    1
    16     1     2    1
    17     2     3    1
    18     3     4    1
    19     4     5    1
    20     5     7    1
    21     7     8    1
    22     8     9    1
    23     9    10   ar
    24    10    11   ar
    25    11    12   ar
    26    12    13   ar
    27    13    14   ar
    28    13    15    1
    29    15    16    1
    30    16    17    1
    31    17    18    1
    32     5     6    1
    33    25    26   ar
    34    31    32   ar
    35    32    28   ar
    36    26    21   ar
    37     6     2    1
    38    14     9   ar
    39    18    12    1
    40    15    19    1
