@<TRIPOS>MOLECULE
*****
 34 37 0 0 0
SMALL
GASTEIGER

@<TRIPOS>ATOM
      1 C         141.8636  144.0340  160.9971 C.2     1  UNL1        0.2502
      2 O         143.3034  144.3553  161.2681 O.2     1  UNL1       -0.2699
      3 N         141.3427  144.0534  159.5905 N.am    1  UNL1       -0.2742
      4 C         139.9028  143.7321  159.3195 C.3     1  UNL1        0.1152
      5 C         139.5094  145.9472  162.1998 C.3     1  UNL1        0.0502
      6 C         139.8625  144.5726  162.6853 C.ar    1  UNL1        0.0418
      7 C         140.9446  143.6932  162.1325 C.ar    1  UNL1        0.0666
      8 C         140.9464  142.4131  162.9145 C.ar    1  UNL1        0.0228
      9 C         139.8654  142.5014  163.9507 C.ar    1  UNL1        0.0598
     10 N         139.1955  143.8361  163.8090 N.ar    1  UNL1       -0.3285
     11 C         138.0582  144.3449  164.6444 C.3     1  UNL1        0.1301
     12 C         139.5156  141.4413  164.9525 C.ar    1  UNL1        0.0158
     13 C         138.6149  140.3075  164.5613 C.ar    1  UNL1        0.0014
     14 C         138.2652  139.2474  165.5631 C.ar    1  UNL1        0.0000
     15 C         138.8162  139.3210  166.9563 C.ar    1  UNL1        0.0000
     16 C         139.7169  140.4548  167.3476 C.ar    1  UNL1        0.0000
     17 C         140.0666  141.5149  166.3457 C.ar    1  UNL1        0.0014
     18 C         142.2617  144.3942  158.4551 C.3     1  UNL1        0.0952
     19 C         142.5394  143.3805  157.3848 C.3     1  UNL1        0.0388
     20 C         143.3477  142.1574  157.7018 C.3     1  UNL1        0.0740
     21 N         143.0286  141.3425  158.9201 N.3     1  UNL1       -0.2697
     22 C         141.7068  140.6419  159.0288 C.3     1  UNL1        0.0938
     23 C         141.3878  139.8271  160.2471 C.3     1  UNL1        0.1081
     24 N         142.3907  139.7128  161.3567 N.pl3   1  UNL1       -0.3040
     25 C         143.7125  140.4135  161.2480 C.3     1  UNL1        0.1081
     26 C         144.0315  141.2283  160.0298 C.3     1  UNL1        0.0938
     27 C         142.0716  138.8980  162.5750 C.ar    1  UNL1        0.0594
     28 C         141.1803  137.6969  162.4617 C.ar    1  UNL1        0.0154
     29 C         140.8613  136.8820  163.6800 C.ar    1  UNL1        0.0022
     30 C         141.4336  137.2683  165.0116 C.ar    1  UNL1        0.0123
     31 C         142.3249  138.4694  165.1249 C.ar    1  UNL1        0.0694
     32 CL        142.8972  138.8557  166.4566 Cl      1  UNL1       -0.0813
     33 C         142.6439  139.2843  163.9067 C.ar    1  UNL1        0.0815
     34 CL        143.5352  140.4854  164.0200 Cl      1  UNL1       -0.0801
@<TRIPOS>BOND
     1     5     6    1
     2     6     7   ar
     3     7     1    1
     4     1     2    2
     5     1     3   am
     6     3     4    1
     7     3    18    1
     8    18    19    1
     9    19    20    1
    10    20    21    1
    11    21    22    1
    12    22    23    1
    13    23    24    1
    14    24    27    1
    15    27    28   ar
    16    28    29   ar
    17    29    30   ar
    18    30    31   ar
    19    31    32    1
    20    31    33   ar
    21    33    34    1
    22    24    25    1
    23    25    26    1
    24     7     8   ar
    25     8     9   ar
    26     9    12    1
    27    12    13   ar
    28    13    14   ar
    29    14    15   ar
    30    15    16   ar
    31    16    17   ar
    32     9    10   ar
    33    10    11    1
    34    10     6   ar
    35    26    21    1
    36    17    12   ar
    37    33    27   ar
@<TRIPOS>MOLECULE
*****
 34 37 0 0 0
SMALL
GASTEIGER

@<TRIPOS>ATOM
      1 C         141.6166  143.8132  161.1275 C.2     1  UNL1        0.2502
      2 O         142.7651  144.7529  161.3465 O.2     1  UNL1       -0.2699
      3 N         141.3908  143.2074  159.7740 N.am    1  UNL1       -0.2742
      4 C         140.2423  142.2677  159.5550 C.3     1  UNL1        0.1152
      5 C         139.2591  145.7342  162.3114 C.3     1  UNL1        0.0502
      6 C         139.6103  144.3624  162.8062 C.ar    1  UNL1        0.0418
      7 C         140.6939  143.4794  162.2621 C.ar    1  UNL1        0.0666
      8 C         140.6928  142.2041  163.0517 C.ar    1  UNL1        0.0228
      9 C         139.6085  142.2988  164.0838 C.ar    1  UNL1        0.0598
     10 N         138.9394  143.6328  163.9321 N.ar    1  UNL1       -0.3285
     11 C         137.7997  144.1468  164.7608 C.3     1  UNL1        0.1301
     12 C         139.2553  141.2447  165.0908 C.ar    1  UNL1        0.0158
     13 C         139.7544  141.3572  166.5008 C.ar    1  UNL1        0.0014
     14 C         139.4012  140.3031  167.5078 C.ar    1  UNL1        0.0000
     15 C         138.5488  139.1364  167.1048 C.ar    1  UNL1        0.0000
     16 C         138.0496  139.0240  165.6948 C.ar    1  UNL1        0.0000
     17 C         138.4029  140.0781  164.6878 C.ar    1  UNL1        0.0014
     18 C         142.3135  143.5412  158.6395 C.3     1  UNL1        0.0952
     19 C         143.2596  142.5035  158.1121 C.3     1  UNL1        0.0388
     20 C         144.4211  142.0536  158.9478 C.3     1  UNL1        0.0740
     21 N         144.1958  141.5857  160.3551 N.3     1  UNL1       -0.2697
     22 C         143.2651  140.4408  160.6250 C.3     1  UNL1        0.0938
     23 C         143.0399  139.9730  162.0322 C.3     1  UNL1        0.1081
     24 N         143.7454  140.6502  163.1696 N.pl3   1  UNL1       -0.3040
     25 C         144.6761  141.7951  162.8998 C.3     1  UNL1        0.1081
     26 C         144.9013  142.2629  161.4926 C.3     1  UNL1        0.0938
     27 C         143.5201  140.1823  164.5770 C.ar    1  UNL1        0.0594
     28 C         143.5101  138.7148  164.8869 C.ar    1  UNL1        0.0154
     29 C         143.2849  138.2469  166.2942 C.ar    1  UNL1        0.0022
     30 C         143.0696  139.2467  167.3915 C.ar    1  UNL1        0.0123
     31 C         143.0796  140.7143  167.0815 C.ar    1  UNL1        0.0694
     32 CL        142.8644  141.7141  168.1788 Cl      1  UNL1       -0.0813
     33 C         143.3049  141.1821  165.6743 C.ar    1  UNL1        0.0815
     34 CL        143.3149  142.6497  165.3643 Cl      1  UNL1       -0.0801
@<TRIPOS>BOND
     1     5     6    1
     2     6     7   ar
     3     7     1    1
     4     1     2    2
     5     1     3   am
     6     3     4    1
     7     3    18    1
     8    18    19    1
     9    19    20    1
    10    20    21    1
    11    21    22    1
    12    22    23    1
    13    23    24    1
    14    24    27    1
    15    27    28   ar
    16    28    29   ar
    17    29    30   ar
    18    30    31   ar
    19    31    32    1
    20    31    33   ar
    21    33    34    1
    22    24    25    1
    23    25    26    1
    24     7     8   ar
    25     8     9   ar
    26     9    12    1
    27    12    13   ar
    28    13    14   ar
    29    14    15   ar
    30    15    16   ar
    31    16    17   ar
    32     9    10   ar
    33    10    11    1
    34    10     6   ar
    35    26    21    1
    36    17    12   ar
    37    33    27   ar
@<TRIPOS>MOLECULE
*****
 34 37 0 0 0
SMALL
GASTEIGER

@<TRIPOS>ATOM
      1 C         142.7171  141.2304  159.5846 C.2     1  UNL1        0.2502
      2 O         144.1243  140.9956  160.0479 O.2     1  UNL1       -0.2699
      3 N         142.1383  140.3873  158.4872 N.am    1  UNL1       -0.2742
      4 C         140.7311  140.6221  158.0240 C.3     1  UNL1        0.1152
      5 C         142.2010  144.2161  158.3729 C.3     1  UNL1        0.0502
      6 C         141.6515  143.6805  159.6618 C.ar    1  UNL1        0.0418
      7 C         141.8887  142.3081  160.2188 C.ar    1  UNL1        0.0666
      8 C         141.1521  142.2028  161.5212 C.ar    1  UNL1        0.0228
      9 C         140.4597  143.5100  161.7692 C.ar    1  UNL1        0.0598
     10 N         140.7683  144.4234  160.6200 N.ar    1  UNL1       -0.3285
     11 C         140.2795  145.8322  160.4576 C.3     1  UNL1        0.1301
     12 C         139.6081  143.8451  162.9577 C.ar    1  UNL1        0.0158
     13 C         138.1597  143.4560  162.9762 C.ar    1  UNL1        0.0014
     14 C         137.3081  143.7911  164.1647 C.ar    1  UNL1        0.0000
     15 C         137.9050  144.5154  165.3347 C.ar    1  UNL1        0.0000
     16 C         139.3535  144.9046  165.3163 C.ar    1  UNL1        0.0000
     17 C         140.2051  144.5695  164.1278 C.ar    1  UNL1        0.0014
     18 C         142.9666  139.3096  157.8531 C.3     1  UNL1        0.0952
     19 C         142.6649  137.8676  158.1356 C.3     1  UNL1        0.0388
     20 C         143.0028  137.2787  159.4731 C.3     1  UNL1        0.0740
     21 N         142.3894  137.8460  160.7190 N.3     1  UNL1       -0.2697
     22 C         143.2375  138.0768  161.9345 C.3     1  UNL1        0.0938
     23 C         142.6240  138.6440  163.1802 C.3     1  UNL1        0.1081
     24 N         141.1626  138.9804  163.2105 N.pl3   1  UNL1       -0.3040
     25 C         140.3145  138.7496  161.9950 C.3     1  UNL1        0.1081
     26 C         140.9279  138.1824  160.7492 C.3     1  UNL1        0.0938
     27 C         140.5492  139.5477  164.4563 C.ar    1  UNL1        0.0594
     28 C         141.0006  140.8809  164.9746 C.ar    1  UNL1        0.0154
     29 C         140.3872  141.4482  166.2204 C.ar    1  UNL1        0.0022
     30 C         139.3223  140.6821  166.9479 C.ar    1  UNL1        0.0123
     31 C         138.8709  139.3488  166.4296 C.ar    1  UNL1        0.0694
     32 CL        137.8061  138.5827  167.1571 Cl      1  UNL1       -0.0813
     33 C         139.4843  138.7816  165.1838 C.ar    1  UNL1        0.0815
     34 CL        139.0329  137.4483  164.6655 Cl      1  UNL1       -0.0801
@<TRIPOS>BOND
     1     5     6    1
     2     6     7   ar
     3     7     1    1
     4     1     2    2
     5     1     3   am
     6     3     4    1
     7     3    18    1
     8    18    19    1
     9    19    20    1
    10    20    21    1
    11    21    22    1
    12    22    23    1
    13    23    24    1
    14    24    27    1
    15    27    28   ar
    16    28    29   ar
    17    29    30   ar
    18    30    31   ar
    19    31    32    1
    20    31    33   ar
    21    33    34    1
    22    24    25    1
    23    25    26    1
    24     7     8   ar
    25     8     9   ar
    26     9    12    1
    27    12    13   ar
    28    13    14   ar
    29    14    15   ar
    30    15    16   ar
    31    16    17   ar
    32     9    10   ar
    33    10    11    1
    34    10     6   ar
    35    26    21    1
    36    17    12   ar
    37    33    27   ar
@<TRIPOS>MOLECULE
*****
 34 37 0 0 0
SMALL
GASTEIGER

@<TRIPOS>ATOM
      1 C         142.5429  141.0849  159.5534 C.2     1  UNL1        0.2502
      2 O         144.0368  141.0672  159.6866 O.2     1  UNL1       -0.2699
      3 N         141.8474  140.0139  158.7664 N.am    1  UNL1       -0.2742
      4 C         140.3534  140.0316  158.6332 C.3     1  UNL1        0.1152
      5 C         142.1822  144.1315  158.4412 C.3     1  UNL1        0.0502
      6 C         141.5787  143.5738  159.6960 C.ar    1  UNL1        0.0418
      7 C         141.7445  142.1734  160.2073 C.ar    1  UNL1        0.0666
      8 C         140.9716  142.0527  161.4872 C.ar    1  UNL1        0.0228
      9 C         140.3282  143.3785  161.7670 C.ar    1  UNL1        0.0598
     10 N         140.7034  144.3186  160.6599 N.ar    1  UNL1       -0.3285
     11 C         140.2780  145.7518  160.5382 C.3     1  UNL1        0.1301
     12 C         139.4617  143.7066  162.9466 C.ar    1  UNL1        0.0158
     13 C         139.9734  144.6176  164.0227 C.ar    1  UNL1        0.0014
     14 C         139.1069  144.9457  165.2023 C.ar    1  UNL1        0.0000
     15 C         137.7287  144.3627  165.3059 C.ar    1  UNL1        0.0000
     16 C         137.2171  143.4517  164.2298 C.ar    1  UNL1        0.0000
     17 C         138.0835  143.1236  163.0501 C.ar    1  UNL1        0.0014
     18 C         142.6458  138.9254  158.1126 C.3     1  UNL1        0.0952
     19 C         142.6104  137.5324  158.6679 C.3     1  UNL1        0.0388
     20 C         143.3233  137.2176  159.9496 C.3     1  UNL1        0.0740
     21 N         142.8955  137.8769  161.2272 N.3     1  UNL1       -0.2697
     22 C         141.4724  137.7667  161.6882 C.3     1  UNL1        0.0938
     23 C         141.0447  138.4260  162.9658 C.3     1  UNL1        0.1081
     24 N         142.0401  139.1956  163.7824 N.pl3   1  UNL1       -0.3040
     25 C         143.4633  139.3059  163.3215 C.3     1  UNL1        0.1081
     26 C         143.8909  138.6465  162.0439 C.3     1  UNL1        0.0938
     27 C         141.6124  139.8549  165.0601 C.ar    1  UNL1        0.0594
     28 C         140.5964  140.9581  165.0312 C.ar    1  UNL1        0.0154
     29 C         140.1687  141.6174  166.3089 C.ar    1  UNL1        0.0022
     30 C         140.7569  141.1736  167.6154 C.ar    1  UNL1        0.0123
     31 C         141.7729  140.0704  167.6442 C.ar    1  UNL1        0.0694
     32 CL        142.3612  139.6265  168.9507 Cl      1  UNL1       -0.0813
     33 C         142.2006  139.4111  166.3666 C.ar    1  UNL1        0.0815
     34 CL        143.2166  138.3079  166.3955 Cl      1  UNL1       -0.0801
@<TRIPOS>BOND
     1     5     6    1
     2     6     7   ar
     3     7     1    1
     4     1     2    2
     5     1     3   am
     6     3     4    1
     7     3    18    1
     8    18    19    1
     9    19    20    1
    10    20    21    1
    11    21    22    1
    12    22    23    1
    13    23    24    1
    14    24    27    1
    15    27    28   ar
    16    28    29   ar
    17    29    30   ar
    18    30    31   ar
    19    31    32    1
    20    31    33   ar
    21    33    34    1
    22    24    25    1
    23    25    26    1
    24     7     8   ar
    25     8     9   ar
    26     9    12    1
    27    12    13   ar
    28    13    14   ar
    29    14    15   ar
    30    15    16   ar
    31    16    17   ar
    32     9    10   ar
    33    10    11    1
    34    10     6   ar
    35    26    21    1
    36    17    12   ar
    37    33    27   ar
@<TRIPOS>MOLECULE
*****
 34 37 0 0 0
SMALL
GASTEIGER

@<TRIPOS>ATOM
      1 C         141.9590  141.6888  159.1668 C.2     1  UNL1        0.2502
      2 O         141.8377  140.5437  158.2056 O.2     1  UNL1       -0.2699
      3 N         141.3920  143.0309  158.8100 N.am    1  UNL1       -0.2742
      4 C         141.5133  144.1760  159.7712 C.3     1  UNL1        0.1152
      5 C         145.0017  142.6137  159.8987 C.3     1  UNL1        0.0502
      6 C         144.0460  141.9170  160.8213 C.ar    1  UNL1        0.0418
      7 C         142.6474  141.4918  160.4848 C.ar    1  UNL1        0.0666
      8 C         142.0581  140.8351  161.6979 C.ar    1  UNL1        0.0228
      9 C         143.0924  140.8544  162.7840 C.ar    1  UNL1        0.0598
     10 N         144.3211  141.5230  162.2422 N.ar    1  UNL1       -0.3285
     11 C         145.6002  141.7566  162.9901 C.3     1  UNL1        0.1301
     12 C         142.9272  140.3020  164.1688 C.ar    1  UNL1        0.0158
     13 C         143.6528  139.0518  164.5691 C.ar    1  UNL1        0.0014
     14 C         143.4876  138.4994  165.9538 C.ar    1  UNL1        0.0000
     15 C         142.5968  139.1974  166.9384 C.ar    1  UNL1        0.0000
     16 C         141.8712  140.4476  166.5381 C.ar    1  UNL1        0.0000
     17 C         142.0364  141.0000  165.1533 C.ar    1  UNL1        0.0014
     18 C         140.7036  143.2279  157.4920 C.3     1  UNL1        0.0952
     19 C         139.2310  143.5104  157.4498 C.3     1  UNL1        0.0388
     20 C         138.2513  142.4454  157.8447 C.3     1  UNL1        0.0740
     21 N         138.3897  141.7525  159.1679 N.3     1  UNL1       -0.2697
     22 C         138.4356  142.5556  160.4339 C.3     1  UNL1        0.0938
     23 C         138.5740  141.8627  161.7570 C.3     1  UNL1        0.1081
     24 N         138.6664  140.3666  161.8141 N.pl3   1  UNL1       -0.3040
     25 C         138.6204  139.5635  160.5481 C.3     1  UNL1        0.1081
     26 C         138.4821  140.2564  159.2250 C.3     1  UNL1        0.0938
     27 C         138.8047  139.6737  163.1373 C.ar    1  UNL1        0.0594
     28 C         138.0532  140.1815  164.3320 C.ar    1  UNL1        0.0154
     29 C         138.1915  139.4885  165.6552 C.ar    1  UNL1        0.0022
     30 C         139.0814  138.2879  165.7836 C.ar    1  UNL1        0.0123
     31 C         139.8329  137.7801  164.5888 C.ar    1  UNL1        0.0694
     32 CL        140.7228  136.5794  164.7173 Cl      1  UNL1       -0.0813
     33 C         139.6946  138.4730  163.2657 C.ar    1  UNL1        0.0815
     34 CL        140.4461  137.9653  162.0709 Cl      1  UNL1       -0.0801
@<TRIPOS>BOND
     1     5     6    1
     2     6     7   ar
     3     7     1    1
     4     1     2    2
     5     1     3   am
     6     3     4    1
     7     3    18    1
     8    18    19    1
     9    19    20    1
    10    20    21    1
    11    21    22    1
    12    22    23    1
    13    23    24    1
    14    24    27    1
    15    27    28   ar
    16    28    29   ar
    17    29    30   ar
    18    30    31   ar
    19    31    32    1
    20    31    33   ar
    21    33    34    1
    22    24    25    1
    23    25    26    1
    24     7     8   ar
    25     8     9   ar
    26     9    12    1
    27    12    13   ar
    28    13    14   ar
    29    14    15   ar
    30    15    16   ar
    31    16    17   ar
    32     9    10   ar
    33    10    11    1
    34    10     6   ar
    35    26    21    1
    36    17    12   ar
    37    33    27   ar
@<TRIPOS>MOLECULE
*****
 34 37 0 0 0
SMALL
GASTEIGER

@<TRIPOS>ATOM
      1 C         139.8959  141.3758  163.7028 C.2     1  UNL1        0.2502
      2 O         141.1131  140.9871  164.4886 O.2     1  UNL1       -0.2699
      3 N         138.6135  140.6189  163.8832 N.am    1  UNL1       -0.2742
      4 C         137.3963  141.0076  163.0975 C.3     1  UNL1        0.1152
      5 C         139.3435  144.5137  164.4083 C.3     1  UNL1        0.0502
      6 C         139.7073  143.9637  163.0610 C.ar    1  UNL1        0.0418
      7 C         139.9612  142.5214  162.7367 C.ar    1  UNL1        0.0666
      8 C         140.2918  142.4257  161.2767 C.ar    1  UNL1        0.0228
      9 C         140.2422  143.8090  160.6987 C.ar    1  UNL1        0.0598
     10 N         139.8809  144.7595  161.8014 N.ar    1  UNL1       -0.3285
     11 C         139.7214  146.2450  161.6680 C.3     1  UNL1        0.1301
     12 C         140.5074  144.1771  159.2689 C.ar    1  UNL1        0.0158
     13 C         139.5782  143.7079  158.1890 C.ar    1  UNL1        0.0014
     14 C         139.8433  144.0760  156.7592 C.ar    1  UNL1        0.0000
     15 C         141.0377  144.9133  156.4094 C.ar    1  UNL1        0.0000
     16 C         141.9669  145.3825  157.4894 C.ar    1  UNL1        0.0000
     17 C         141.7017  145.0144  158.9191 C.ar    1  UNL1        0.0014
     18 C         138.5482  139.4733  164.8493 C.3     1  UNL1        0.0952
     19 C         139.1379  138.1448  164.4783 C.3     1  UNL1        0.0388
     20 C         138.9230  137.5867  163.1028 C.3     1  UNL1        0.0740
     21 N         139.7227  138.1112  161.9471 N.3     1  UNL1       -0.2697
     22 C         141.2083  138.2739  162.0756 C.3     1  UNL1        0.0938
     23 C         142.0079  138.7984  160.9200 C.3     1  UNL1        0.1081
     24 N         141.3220  139.1601  159.6360 N.pl3   1  UNL1       -0.3040
     25 C         139.8364  138.9974  159.5076 C.3     1  UNL1        0.1081
     26 C         139.0368  138.4729  160.6631 C.3     1  UNL1        0.0938
     27 C         142.1217  139.6846  158.4803 C.ar    1  UNL1        0.0594
     28 C         142.2703  141.1638  158.2810 C.ar    1  UNL1        0.0154
     29 C         143.0701  141.6883  157.1254 C.ar    1  UNL1        0.0022
     30 C         143.7212  140.7335  156.1691 C.ar    1  UNL1        0.0123
     31 C         143.5726  139.2542  156.3685 C.ar    1  UNL1        0.0694
     32 CL        144.2237  138.2994  155.4123 Cl      1  UNL1       -0.0813
     33 C         142.7729  138.7298  157.5241 C.ar    1  UNL1        0.0815
     34 CL        142.6243  137.2505  157.7235 Cl      1  UNL1       -0.0801
@<TRIPOS>BOND
     1     5     6    1
     2     6     7   ar
     3     7     1    1
     4     1     2    2
     5     1     3   am
     6     3     4    1
     7     3    18    1
     8    18    19    1
     9    19    20    1
    10    20    21    1
    11    21    22    1
    12    22    23    1
    13    23    24    1
    14    24    27    1
    15    27    28   ar
    16    28    29   ar
    17    29    30   ar
    18    30    31   ar
    19    31    32    1
    20    31    33   ar
    21    33    34    1
    22    24    25    1
    23    25    26    1
    24     7     8   ar
    25     8     9   ar
    26     9    12    1
    27    12    13   ar
    28    13    14   ar
    29    14    15   ar
    30    15    16   ar
    31    16    17   ar
    32     9    10   ar
    33    10    11    1
    34    10     6   ar
    35    26    21    1
    36    17    12   ar
    37    33    27   ar
@<TRIPOS>MOLECULE
*****
 34 37 0 0 0
SMALL
GASTEIGER

@<TRIPOS>ATOM
      1 C         143.1240  141.5089  161.3469 C.2     1  UNL1        0.2502
      2 O         143.0114  143.0029  161.2733 O.2     1  UNL1       -0.2699
      3 N         143.6291  140.7357  160.1649 N.am    1  UNL1       -0.2742
      4 C         143.7418  139.2418  160.2385 C.3     1  UNL1        0.1152
      5 C         145.1588  140.4617  163.6733 C.3     1  UNL1        0.0502
      6 C         143.6668  140.3069  163.6718 C.ar    1  UNL1        0.0418
      7 C         142.7316  140.7882  162.6024 C.ar    1  UNL1        0.0666
      8 C         141.3349  140.4223  163.0091 C.ar    1  UNL1        0.0228
      9 C         141.4069  139.7148  164.3298 C.ar    1  UNL1        0.0598
     10 N         142.8482  139.6435  164.7393 N.ar    1  UNL1       -0.3285
     11 C         143.3779  139.0184  165.9959 C.3     1  UNL1        0.1301
     12 C         140.2423  139.1737  165.1049 C.ar    1  UNL1        0.0158
     13 C         139.6069  137.8777  164.6968 C.ar    1  UNL1        0.0014
     14 C         138.4423  137.3366  165.4719 C.ar    1  UNL1        0.0000
     15 C         137.9130  138.0915  166.6551 C.ar    1  UNL1        0.0000
     16 C         138.5483  139.3875  167.0631 C.ar    1  UNL1        0.0000
     17 C         139.7130  139.9286  166.2881 C.ar    1  UNL1        0.0014
     18 C         144.0216  141.4565  158.9094 C.3     1  UNL1        0.0952
     19 C         144.4893  140.6803  157.7140 C.3     1  UNL1        0.0388
     20 C         143.5057  140.2540  156.6648 C.3     1  UNL1        0.0740
     21 N         143.2237  138.7966  156.4490 N.3     1  UNL1       -0.2697
     22 C         141.9930  138.1753  157.0398 C.3     1  UNL1        0.0938
     23 C         141.7110  136.7180  156.8240 C.3     1  UNL1        0.1081
     24 N         142.6598  135.8819  156.0173 N.pl3   1  UNL1       -0.3040
     25 C         143.8906  136.5032  155.4264 C.3     1  UNL1        0.1081
     26 C         144.1725  137.9606  155.6422 C.3     1  UNL1        0.0938
     27 C         142.3778  134.4245  155.8015 C.ar    1  UNL1        0.0594
     28 C         141.4878  133.9917  154.6744 C.ar    1  UNL1        0.0154
     29 C         141.2058  132.5343  154.4586 C.ar    1  UNL1        0.0022
     30 C         141.8139  131.5098  155.3699 C.ar    1  UNL1        0.0123
     31 C         142.7040  131.9426  156.4970 C.ar    1  UNL1        0.0694
     32 CL        143.3122  130.9181  157.4083 Cl      1  UNL1       -0.0813
     33 C         142.9860  133.4000  156.7128 C.ar    1  UNL1        0.0815
     34 CL        143.8761  133.8329  157.8399 Cl      1  UNL1       -0.0801
@<TRIPOS>BOND
     1     5     6    1
     2     6     7   ar
     3     7     1    1
     4     1     2    2
     5     1     3   am
     6     3     4    1
     7     3    18    1
     8    18    19    1
     9    19    20    1
    10    20    21    1
    11    21    22    1
    12    22    23    1
    13    23    24    1
    14    24    27    1
    15    27    28   ar
    16    28    29   ar
    17    29    30   ar
    18    30    31   ar
    19    31    32    1
    20    31    33   ar
    21    33    34    1
    22    24    25    1
    23    25    26    1
    24     7     8   ar
    25     8     9   ar
    26     9    12    1
    27    12    13   ar
    28    13    14   ar
    29    14    15   ar
    30    15    16   ar
    31    16    17   ar
    32     9    10   ar
    33    10    11    1
    34    10     6   ar
    35    26    21    1
    36    17    12   ar
    37    33    27   ar
@<TRIPOS>MOLECULE
*****
 34 37 0 0 0
SMALL
GASTEIGER

@<TRIPOS>ATOM
      1 C         141.3787  141.3787  158.2753 C.2     1  UNL1        0.2502
      2 O         140.5157  140.9076  157.1425 O.2     1  UNL1       -0.2699
      3 N         142.7592  140.8186  158.4496 N.am    1  UNL1       -0.2742
      4 C         143.6222  141.2897  159.5824 C.3     1  UNL1        0.1152
      5 C         141.4712  144.6126  157.8482 C.3     1  UNL1        0.0502
      6 C         140.9036  143.8962  159.0376 C.ar    1  UNL1        0.0418
      7 C         140.8610  142.4097  159.2339 C.ar    1  UNL1        0.0666
      8 C         140.2100  142.1354  160.5571 C.ar    1  UNL1        0.0228
      9 C         139.8502  143.4523  161.1786 C.ar    1  UNL1        0.0598
     10 N         140.2788  144.5406  160.2394 N.ar    1  UNL1       -0.3285
     11 C         140.1120  146.0144  160.4629 C.3     1  UNL1        0.1301
     12 C         139.1794  143.6468  162.5061 C.ar    1  UNL1        0.0158
     13 C         139.6701  144.7077  163.4460 C.ar    1  UNL1        0.0014
     14 C         138.9994  144.9023  164.7735 C.ar    1  UNL1        0.0000
     15 C         137.8379  144.0358  165.1611 C.ar    1  UNL1        0.0000
     16 C         137.3472  142.9749  164.2212 C.ar    1  UNL1        0.0000
     17 C         138.0179  142.7804  162.8937 C.ar    1  UNL1        0.0014
     18 C         143.2769  139.7876  157.4910 C.3     1  UNL1        0.0952
     19 C         142.6455  138.4278  157.4391 C.3     1  UNL1        0.0388
     20 C         142.7659  137.4997  158.6113 C.3     1  UNL1        0.0740
     21 N         142.1044  137.8452  159.9125 N.3     1  UNL1       -0.2697
     22 C         142.8885  137.7915  161.1900 C.3     1  UNL1        0.0938
     23 C         142.2269  138.1370  162.4911 C.3     1  UNL1        0.1081
     24 N         140.7812  138.5360  162.5147 N.pl3   1  UNL1       -0.3040
     25 C         139.9970  138.5897  161.2371 C.3     1  UNL1        0.1081
     26 C         140.6586  138.2442  159.9360 C.3     1  UNL1        0.0938
     27 C         140.1196  138.8815  163.8159 C.ar    1  UNL1        0.0594
     28 C         139.1504  137.9231  164.4421 C.ar    1  UNL1        0.0154
     29 C         138.4888  138.2686  165.7434 C.ar    1  UNL1        0.0022
     30 C         138.7965  139.5724  166.4182 C.ar    1  UNL1        0.0123
     31 C         139.7657  140.5307  165.7919 C.ar    1  UNL1        0.0694
     32 CL        140.0734  141.8345  166.4668 Cl      1  UNL1       -0.0813
     33 C         140.4273  140.1853  164.4908 C.ar    1  UNL1        0.0815
     34 CL        141.3965  141.1436  163.8644 Cl      1  UNL1       -0.0801
@<TRIPOS>BOND
     1     5     6    1
     2     6     7   ar
     3     7     1    1
     4     1     2    2
     5     1     3   am
     6     3     4    1
     7     3    18    1
     8    18    19    1
     9    19    20    1
    10    20    21    1
    11    21    22    1
    12    22    23    1
    13    23    24    1
    14    24    27    1
    15    27    28   ar
    16    28    29   ar
    17    29    30   ar
    18    30    31   ar
    19    31    32    1
    20    31    33   ar
    21    33    34    1
    22    24    25    1
    23    25    26    1
    24     7     8   ar
    25     8     9   ar
    26     9    12    1
    27    12    13   ar
    28    13    14   ar
    29    14    15   ar
    30    15    16   ar
    31    16    17   ar
    32     9    10   ar
    33    10    11    1
    34    10     6   ar
    35    26    21    1
    36    17    12   ar
    37    33    27   ar
@<TRIPOS>MOLECULE
*****
 34 37 0 0 0
SMALL
GASTEIGER

@<TRIPOS>ATOM
      1 C         140.0775  139.6110  158.2664 C.2     1  UNL1        0.2502
      2 O         139.0372  138.9238  157.4324 O.2     1  UNL1       -0.2699
      3 N         140.9005  140.7178  157.6767 N.am    1  UNL1       -0.2742
      4 C         141.9408  141.4050  158.5107 C.3     1  UNL1        0.1152
      5 C         142.7076  138.0705  159.4320 C.3     1  UNL1        0.0502
      6 C         141.5037  138.4834  160.2258 C.ar    1  UNL1        0.0418
      7 C         140.2948  139.1915  159.6900 C.ar    1  UNL1        0.0666
      8 C         139.3412  139.4064  160.8279 C.ar    1  UNL1        0.0228
      9 C         139.9608  138.8311  162.0668 C.ar    1  UNL1        0.0598
     10 N         141.2973  138.2606  161.6947 N.ar    1  UNL1       -0.3285
     11 C         142.2587  137.5858  162.6278 C.3     1  UNL1        0.1301
     12 C         139.3511  138.8269  163.4373 C.ar    1  UNL1        0.0158
     13 C         138.9265  140.1173  164.0732 C.ar    1  UNL1        0.0014
     14 C         138.3167  140.1132  165.4436 C.ar    1  UNL1        0.0000
     15 C         138.1315  138.8186  166.1782 C.ar    1  UNL1        0.0000
     16 C         138.5561  137.5281  165.5423 C.ar    1  UNL1        0.0000
     17 C         139.1659  137.5323  164.1719 C.ar    1  UNL1        0.0014
     18 C         140.6833  141.1374  156.2531 C.3     1  UNL1        0.0952
     19 C         140.3618  142.5672  155.9333 C.3     1  UNL1        0.0388
     20 C         139.2405  143.2617  156.6478 C.3     1  UNL1        0.0740
     21 N         139.2690  143.3905  158.1420 N.3     1  UNL1       -0.2697
     22 C         138.3824  142.5241  158.9865 C.3     1  UNL1        0.0938
     23 C         138.4110  142.6529  160.4807 C.3     1  UNL1        0.1081
     24 N         139.3260  143.6482  161.1303 N.pl3   1  UNL1       -0.3040
     25 C         140.2126  144.5146  160.2858 C.3     1  UNL1        0.1081
     26 C         140.1841  144.3858  158.7916 C.3     1  UNL1        0.0938
     27 C         139.3545  143.7770  162.6245 C.ar    1  UNL1        0.0594
     28 C         138.2405  144.4843  163.3377 C.ar    1  UNL1        0.0154
     29 C         138.2690  144.6131  164.8320 C.ar    1  UNL1        0.0022
     30 C         139.4116  144.0346  165.6129 C.ar    1  UNL1        0.0123
     31 C         140.5256  143.3273  164.8997 C.ar    1  UNL1        0.0694
     32 CL        141.6682  142.7488  165.6806 Cl      1  UNL1       -0.0813
     33 C         140.4971  143.1985  163.4055 C.ar    1  UNL1        0.0815
     34 CL        141.6111  142.4912  162.6922 Cl      1  UNL1       -0.0801
@<TRIPOS>BOND
     1     5     6    1
     2     6     7   ar
     3     7     1    1
     4     1     2    2
     5     1     3   am
     6     3     4    1
     7     3    18    1
     8    18    19    1
     9    19    20    1
    10    20    21    1
    11    21    22    1
    12    22    23    1
    13    23    24    1
    14    24    27    1
    15    27    28   ar
    16    28    29   ar
    17    29    30   ar
    18    30    31   ar
    19    31    32    1
    20    31    33   ar
    21    33    34    1
    22    24    25    1
    23    25    26    1
    24     7     8   ar
    25     8     9   ar
    26     9    12    1
    27    12    13   ar
    28    13    14   ar
    29    14    15   ar
    30    15    16   ar
    31    16    17   ar
    32     9    10   ar
    33    10    11    1
    34    10     6   ar
    35    26    21    1
    36    17    12   ar
    37    33    27   ar
