@<TRIPOS>MOLECULE
*****
 29 32 0 0 0
SMALL
GASTEIGER

@<TRIPOS>ATOM
      1 C         141.4818  142.0158  166.3008 C.2     1  UNL1        0.0035
      2 C         140.9840  142.4647  167.6427 C.2     1  UNL1        0.0130
      3 C         141.2633  141.6364  168.8617 C.3     1  UNL1        0.1542
      4 C         140.4862  142.9135  168.9846 C.3     1  UNL1        0.0614
      5 C         139.9885  143.3623  170.3265 C.3     1  UNL1        0.0725
      6 N         140.2678  142.5340  171.5455 N.3     1  UNL1       -0.2972
      7 C         141.0448  141.2569  171.4226 C.3     1  UNL1        0.0725
      8 C         141.5425  140.8081  170.0807 C.3     1  UNL1        0.0614
      9 O         142.0403  140.3592  168.7387 O.3     1  UNL1       -0.4785
     10 C         142.5381  139.9104  167.3968 C.ar    1  UNL1        0.1386
     11 C         143.3152  138.6332  167.2739 C.ar    1  UNL1        0.0369
     12 C         143.8129  138.1844  165.9320 C.ar    1  UNL1        0.0031
     13 C         143.5336  139.0127  164.7130 C.ar    1  UNL1        0.0002
     14 C         142.7566  140.2898  164.8359 C.ar    1  UNL1        0.0030
     15 C         142.2588  140.7387  166.1778 C.ar    1  UNL1        0.0338
     16 H         139.3634  142.2907  171.9497 H       1  UNL1        0.1233
     17 C         140.6439  144.5006  162.6438 C.ar    1  UNL1        0.1347
     18 C         141.9377  144.6681  163.3840 C.ar    1  UNL1        0.0238
     19 C         142.2170  143.8398  164.6030 C.ar    1  UNL1        0.0032
     20 C         141.2025  142.8441  165.0818 C.ar    1  UNL1        0.0191
     21 C         139.9086  142.6766  164.3415 C.ar    1  UNL1        0.0989
     22 N         139.6293  143.5049  163.1225 N.ar    1  UNL1       -0.2393
     23 N         140.6855  144.7901  160.0622 N.am    1  UNL1       -0.2748
     24 C         140.3647  145.3289  161.4248 C.2     1  UNL1        0.2668
     25 O         139.7645  146.6962  161.5684 O.2     1  UNL1       -0.2683
     26 C         141.4999  145.8870  157.8523 C.3     1  UNL1        0.0233
     27 C         140.4063  145.6184  158.8432 C.3     1  UNL1        0.0938
     28 C         141.2857  143.4228  159.9186 C.3     1  UNL1        0.0938
     29 C         142.7734  143.2455  159.9906 C.3     1  UNL1        0.0233
@<TRIPOS>BOND
     1    26    27    1
     2    27    23    1
     3    23    28    1
     4    28    29    1
     5    23    24   am
     6    24    25    2
     7    24    17    1
     8    17    18   ar
     9    18    19   ar
    10    19    20   ar
    11    20     1    1
    12     1     2    2
    13     2     3    1
    14     3     4    1
    15     4     5    1
    16     5     6    1
    17     6     7    1
    18     7     8    1
    19     3     9    1
    20     9    10    1
    21    10    11   ar
    22    11    12   ar
    23    12    13   ar
    24    13    14   ar
    25    14    15   ar
    26    20    21   ar
    27    21    22   ar
    28    22    17   ar
    29    15     1    1
    30     8     3    1
    31    15    10   ar
    32     6    16    1
@<TRIPOS>MOLECULE
*****
 29 32 0 0 0
SMALL
GASTEIGER

@<TRIPOS>ATOM
      1 C         139.8147  141.9379  165.7270 C.2     1  UNL1        0.0035
      2 C         140.1765  142.4672  167.0830 C.2     1  UNL1        0.0130
      3 C         140.1576  141.5552  168.2737 C.3     1  UNL1        0.1542
      4 C         140.5383  142.9966  168.4391 C.3     1  UNL1        0.0614
      5 C         140.9002  143.5259  169.7951 C.3     1  UNL1        0.0725
      6 N         140.8812  142.6138  170.9858 N.3     1  UNL1       -0.2972
      7 C         140.5005  141.1724  170.8205 C.3     1  UNL1        0.0725
      8 C         140.1387  140.6431  169.4644 C.3     1  UNL1        0.0614
      9 O         139.7768  140.1137  168.1083 O.3     1  UNL1       -0.4785
     10 C         139.4150  139.5844  166.7523 C.ar    1  UNL1        0.1386
     11 C         139.0343  138.1429  166.5869 C.ar    1  UNL1        0.0369
     12 C         138.6724  137.6136  165.2309 C.ar    1  UNL1        0.0031
     13 C         138.6914  138.5257  164.0402 C.ar    1  UNL1        0.0002
     14 C         139.0721  139.9671  164.2055 C.ar    1  UNL1        0.0030
     15 C         139.4339  140.4965  165.5616 C.ar    1  UNL1        0.0338
     16 H         140.2253  143.0167  171.6550 H       1  UNL1        0.1233
     17 C         139.8714  144.6741  162.1549 C.ar    1  UNL1        0.1347
     18 C         138.5631  144.2318  162.7401 C.ar    1  UNL1        0.0238
     19 C         138.5442  143.3197  163.9308 C.ar    1  UNL1        0.0032
     20 C         139.8336  142.8499  164.5363 C.ar    1  UNL1        0.0191
     21 C         141.1420  143.2923  163.9511 C.ar    1  UNL1        0.0989
     22 N         141.1610  144.2044  162.7604 N.ar    1  UNL1       -0.2393
     23 N         140.3670  145.0765  159.6365 N.am    1  UNL1       -0.2748
     24 C         139.8903  145.5862  160.9642 C.2     1  UNL1        0.2668
     25 O         139.4326  147.0081  161.1013 O.2     1  UNL1       -0.2683
     26 C         141.3494  145.7373  157.3238 C.3     1  UNL1        0.0233
     27 C         140.3859  145.9885  158.4458 C.3     1  UNL1        0.0938
     28 C         140.8248  143.6546  159.4994 C.3     1  UNL1        0.0938
     29 C         139.8396  142.5803  159.1455 C.3     1  UNL1        0.0233
@<TRIPOS>BOND
     1    26    27    1
     2    27    23    1
     3    23    28    1
     4    28    29    1
     5    23    24   am
     6    24    25    2
     7    24    17    1
     8    17    18   ar
     9    18    19   ar
    10    19    20   ar
    11    20     1    1
    12     1     2    2
    13     2     3    1
    14     3     4    1
    15     4     5    1
    16     5     6    1
    17     6     7    1
    18     7     8    1
    19     3     9    1
    20     9    10    1
    21    10    11   ar
    22    11    12   ar
    23    12    13   ar
    24    13    14   ar
    25    14    15   ar
    26    20    21   ar
    27    21    22   ar
    28    22    17   ar
    29    15     1    1
    30     8     3    1
    31    15    10   ar
    32     6    16    1
@<TRIPOS>MOLECULE
*****
 29 32 0 0 0
SMALL
GASTEIGER

@<TRIPOS>ATOM
      1 C         141.5182  140.9119  166.3076 C.2     1  UNL1        0.0035
      2 C         142.1508  141.5437  167.5121 C.2     1  UNL1        0.0130
      3 C         141.5146  141.3886  168.8616 C.3     1  UNL1        0.1542
      4 C         142.7833  142.1755  168.7165 C.3     1  UNL1        0.0614
      5 C         143.4158  142.8073  169.9209 C.3     1  UNL1        0.0725
      6 N         142.7796  142.6522  171.2704 N.3     1  UNL1       -0.2972
      7 C         141.5109  141.8653  171.4155 C.3     1  UNL1        0.0725
      8 C         140.8784  141.2335  170.2111 C.3     1  UNL1        0.0614
      9 O         140.2458  140.6016  169.0066 O.3     1  UNL1       -0.4785
     10 C         139.6133  139.9698  167.8022 C.ar    1  UNL1        0.1386
     11 C         138.3445  139.1829  167.9473 C.ar    1  UNL1        0.0369
     12 C         137.7120  138.5511  166.7429 C.ar    1  UNL1        0.0031
     13 C         138.3482  138.7062  165.3933 C.ar    1  UNL1        0.0002
     14 C         139.6169  139.4931  165.2482 C.ar    1  UNL1        0.0030
     15 C         140.2495  140.1249  166.4527 C.ar    1  UNL1        0.0338
     16 H         142.5837  143.5926  171.6134 H       1  UNL1        0.1233
     17 C         143.4267  141.3772  162.2590 C.ar    1  UNL1        0.1347
     18 C         143.9574  140.3607  163.2260 C.ar    1  UNL1        0.0238
     19 C         143.3212  140.2056  164.5755 C.ar    1  UNL1        0.0032
     20 C         142.1544  141.0670  164.9581 C.ar    1  UNL1        0.0191
     21 C         141.6236  142.0835  163.9911 C.ar    1  UNL1        0.0989
     22 N         142.2598  142.2387  162.6416 N.ar    1  UNL1       -0.2393
     23 N         143.6468  140.6408  159.7773 N.am    1  UNL1       -0.2748
     24 C         144.0629  141.5323  160.9095 C.2     1  UNL1        0.2668
     25 O         145.1153  142.5789  160.6923 O.2     1  UNL1       -0.2683
     26 C         143.5673  140.3126  157.2012 C.3     1  UNL1        0.0233
     27 C         144.2830  140.7959  158.4277 C.3     1  UNL1        0.0938
     28 C         142.5944  139.5942  159.9945 C.3     1  UNL1        0.0938
     29 C         142.9939  138.1768  160.2796 C.3     1  UNL1        0.0233
@<TRIPOS>BOND
     1    26    27    1
     2    27    23    1
     3    23    28    1
     4    28    29    1
     5    23    24   am
     6    24    25    2
     7    24    17    1
     8    17    18   ar
     9    18    19   ar
    10    19    20   ar
    11    20     1    1
    12     1     2    2
    13     2     3    1
    14     3     4    1
    15     4     5    1
    16     5     6    1
    17     6     7    1
    18     7     8    1
    19     3     9    1
    20     9    10    1
    21    10    11   ar
    22    11    12   ar
    23    12    13   ar
    24    13    14   ar
    25    14    15   ar
    26    20    21   ar
    27    21    22   ar
    28    22    17   ar
    29    15     1    1
    30     8     3    1
    31    15    10   ar
    32     6    16    1
@<TRIPOS>MOLECULE
*****
 29 32 0 0 0
SMALL
GASTEIGER

@<TRIPOS>ATOM
      1 C         140.4181  141.8680  163.4699 C.2     1  UNL1        0.0035
      2 C         139.6111  141.0343  164.4207 C.2     1  UNL1        0.0130
      3 C         140.0838  140.8348  165.8302 C.3     1  UNL1        0.1542
      4 C         138.8042  140.2007  165.3714 C.3     1  UNL1        0.0614
      5 C         137.9973  139.3671  166.3222 C.3     1  UNL1        0.0725
      6 N         138.4699  139.1677  167.7317 N.3     1  UNL1       -0.2972
      7 C         139.7495  139.8018  168.1905 C.3     1  UNL1        0.0725
      8 C         140.5564  140.6354  167.2398 C.3     1  UNL1        0.0614
      9 O         141.3634  141.4690  166.2890 O.3     1  UNL1       -0.4785
     10 C         142.1703  142.3026  165.3383 C.ar    1  UNL1        0.1386
     11 C         143.4500  142.9367  165.7970 C.ar    1  UNL1        0.0369
     12 C         144.2569  143.7703  164.8463 C.ar    1  UNL1        0.0031
     13 C         143.7843  143.9698  163.4368 C.ar    1  UNL1        0.0002
     14 C         142.5047  143.3357  162.9780 C.ar    1  UNL1        0.0030
     15 C         141.6977  142.5021  163.9287 C.ar    1  UNL1        0.0338
     16 H         138.5743  138.1622  167.8678 H       1  UNL1        0.1233
     17 C         139.0002  142.4664  159.2413 C.ar    1  UNL1        0.1347
     18 C         139.9980  141.3906  159.5526 C.ar    1  UNL1        0.0238
     19 C         140.4706  141.1911  160.9621 C.ar    1  UNL1        0.0032
     20 C         139.9455  142.0674  162.0604 C.ar    1  UNL1        0.0191
     21 C         138.9476  143.1433  161.7491 C.ar    1  UNL1        0.0989
     22 N         138.4749  143.3428  160.3396 N.ar    1  UNL1       -0.2393
     23 N         139.2284  143.6448  156.9371 N.am    1  UNL1       -0.2748
     24 C         138.5275  142.6659  157.8318 C.2     1  UNL1        0.2668
     25 O         137.3539  141.8864  157.3169 O.2     1  UNL1       -0.2683
     26 C         137.6958  144.8629  155.2291 C.3     1  UNL1        0.0233
     27 C         138.7557  143.8443  155.5276 C.3     1  UNL1        0.0938
     28 C         140.4020  144.4243  157.4521 C.3     1  UNL1        0.0938
     29 C         140.2701  145.8961  157.7096 C.3     1  UNL1        0.0233
@<TRIPOS>BOND
     1    26    27    1
     2    27    23    1
     3    23    28    1
     4    28    29    1
     5    23    24   am
     6    24    25    2
     7    24    17    1
     8    17    18   ar
     9    18    19   ar
    10    19    20   ar
    11    20     1    1
    12     1     2    2
    13     2     3    1
    14     3     4    1
    15     4     5    1
    16     5     6    1
    17     6     7    1
    18     7     8    1
    19     3     9    1
    20     9    10    1
    21    10    11   ar
    22    11    12   ar
    23    12    13   ar
    24    13    14   ar
    25    14    15   ar
    26    20    21   ar
    27    21    22   ar
    28    22    17   ar
    29    15     1    1
    30     8     3    1
    31    15    10   ar
    32     6    16    1
@<TRIPOS>MOLECULE
*****
 29 32 0 0 0
SMALL
GASTEIGER

@<TRIPOS>ATOM
      1 C         140.3175  142.3438  161.3593 C.2     1  UNL1        0.0035
      2 C         141.7929  142.0733  161.3726 C.2     1  UNL1        0.0130
      3 C         142.6261  142.5159  162.5388 C.3     1  UNL1        0.1542
      4 C         143.2682  141.8028  161.3860 C.3     1  UNL1        0.0614
      5 C         144.7435  141.5323  161.3994 C.3     1  UNL1        0.0725
      6 N         145.5767  141.9749  162.5655 N.3     1  UNL1       -0.2972
      7 C         144.9345  142.6880  163.7184 C.3     1  UNL1        0.0725
      8 C         143.4592  142.9585  163.7050 C.3     1  UNL1        0.0614
      9 O         141.9838  143.2290  163.6917 O.3     1  UNL1       -0.4785
     10 C         140.5085  143.4995  163.6783 C.ar    1  UNL1        0.1386
     11 C         139.8662  144.2127  164.8312 C.ar    1  UNL1        0.0369
     12 C         138.3909  144.4832  164.8179 C.ar    1  UNL1        0.0031
     13 C         137.5578  144.0405  163.6517 C.ar    1  UNL1        0.0002
     14 C         138.1999  143.3275  162.4989 C.ar    1  UNL1        0.0030
     15 C         139.6753  143.0569  162.5122 C.ar    1  UNL1        0.0338
     16 H         146.2933  142.5994  162.1954 H       1  UNL1        0.1233
     17 C         137.8181  141.0160  157.8608 C.ar    1  UNL1        0.1347
     18 C         138.2679  142.4434  157.9624 C.ar    1  UNL1        0.0238
     19 C         139.1010  142.8860  159.1286 C.ar    1  UNL1        0.0032
     20 C         139.4844  141.9012  160.1932 C.ar    1  UNL1        0.0191
     21 C         139.0346  140.4738  160.0915 C.ar    1  UNL1        0.0989
     22 N         138.2015  140.0312  158.9253 N.ar    1  UNL1       -0.2393
     23 N         137.6467  140.1684  155.4109 N.am    1  UNL1       -0.2748
     24 C         136.9850  140.5734  156.6946 C.2     1  UNL1        0.2668
     25 O         135.4900  140.5359  156.8122 O.2     1  UNL1       -0.2683
     26 C         136.4082  138.2873  154.1155 C.3     1  UNL1        0.0233
     27 C         136.8136  139.7258  154.2447 C.3     1  UNL1        0.0938
     28 C         139.1417  140.2060  155.2933 C.3     1  UNL1        0.0938
     29 C         139.9426  138.9563  155.5096 C.3     1  UNL1        0.0233
@<TRIPOS>BOND
     1    26    27    1
     2    27    23    1
     3    23    28    1
     4    28    29    1
     5    23    24   am
     6    24    25    2
     7    24    17    1
     8    17    18   ar
     9    18    19   ar
    10    19    20   ar
    11    20     1    1
    12     1     2    2
    13     2     3    1
    14     3     4    1
    15     4     5    1
    16     5     6    1
    17     6     7    1
    18     7     8    1
    19     3     9    1
    20     9    10    1
    21    10    11   ar
    22    11    12   ar
    23    12    13   ar
    24    13    14   ar
    25    14    15   ar
    26    20    21   ar
    27    21    22   ar
    28    22    17   ar
    29    15     1    1
    30     8     3    1
    31    15    10   ar
    32     6    16    1
@<TRIPOS>MOLECULE
*****
 29 32 0 0 0
SMALL
GASTEIGER

@<TRIPOS>ATOM
      1 C         140.8870  140.1922  161.3442 C.2     1  UNL1        0.0035
      2 C         142.2133  140.8929  161.3307 C.2     1  UNL1        0.0130
      3 C         143.1833  140.6841  162.4556 C.3     1  UNL1        0.1542
      4 C         143.5394  141.5936  161.3172 C.3     1  UNL1        0.0614
      5 C         144.8656  142.2942  161.3037 C.3     1  UNL1        0.0725
      6 N         145.8357  142.0855  162.4286 N.3     1  UNL1       -0.2972
      7 C         145.4795  141.1760  163.5670 C.3     1  UNL1        0.0725
      8 C         144.1533  140.4754  163.5805 C.3     1  UNL1        0.0614
      9 O         142.8271  139.7746  163.5941 O.3     1  UNL1       -0.4785
     10 C         141.5009  139.0739  163.6076 C.ar    1  UNL1        0.1386
     11 C         141.1447  138.1644  164.7460 C.ar    1  UNL1        0.0369
     12 C         139.8185  137.4638  164.7595 C.ar    1  UNL1        0.0031
     13 C         138.8485  137.6725  163.6346 C.ar    1  UNL1        0.0002
     14 C         139.2046  138.5820  162.4962 C.ar    1  UNL1        0.0030
     15 C         140.5309  139.2827  162.4827 C.ar    1  UNL1        0.0338
     16 H         146.0207  143.0038  162.8322 H       1  UNL1        0.1233
     17 C         137.9769  140.8185  157.9695 C.ar    1  UNL1        0.1347
     18 C         138.1123  141.8551  159.0452 C.ar    1  UNL1        0.0238
     19 C         139.0824  141.6463  160.1701 C.ar    1  UNL1        0.0032
     20 C         139.9170  140.4009  160.2193 C.ar    1  UNL1        0.0191
     21 C         139.7815  139.3642  159.1436 C.ar    1  UNL1        0.0989
     22 N         138.8115  139.5730  158.0187 N.ar    1  UNL1       -0.2393
     23 N         137.3875  141.8869  155.6758 N.am    1  UNL1       -0.2748
     24 C         137.0068  141.0272  156.8446 C.2     1  UNL1        0.2668
     25 O         135.6561  140.3763  156.8885 O.2     1  UNL1       -0.2683
     26 C         136.3059  141.0748  153.4575 C.3     1  UNL1        0.0233
     27 C         136.4174  142.0957  154.5509 C.3     1  UNL1        0.0938
     28 C         138.7382  142.5378  155.6319 C.3     1  UNL1        0.0938
     29 C         138.8855  143.9851  155.9972 C.3     1  UNL1        0.0233
@<TRIPOS>BOND
     1    26    27    1
     2    27    23    1
     3    23    28    1
     4    28    29    1
     5    23    24   am
     6    24    25    2
     7    24    17    1
     8    17    18   ar
     9    18    19   ar
    10    19    20   ar
    11    20     1    1
    12     1     2    2
    13     2     3    1
    14     3     4    1
    15     4     5    1
    16     5     6    1
    17     6     7    1
    18     7     8    1
    19     3     9    1
    20     9    10    1
    21    10    11   ar
    22    11    12   ar
    23    12    13   ar
    24    13    14   ar
    25    14    15   ar
    26    20    21   ar
    27    21    22   ar
    28    22    17   ar
    29    15     1    1
    30     8     3    1
    31    15    10   ar
    32     6    16    1
@<TRIPOS>MOLECULE
*****
 29 32 0 0 0
SMALL
GASTEIGER

@<TRIPOS>ATOM
      1 C         140.3033  140.3735  162.4333 C.2     1  UNL1        0.0035
      2 C         140.3296  141.8730  162.4649 C.2     1  UNL1        0.0130
      3 C         139.7230  142.6095  163.6223 C.3     1  UNL1        0.1542
      4 C         140.3559  143.3724  162.4966 C.3     1  UNL1        0.0614
      5 C         140.3822  144.8718  162.5282 C.3     1  UNL1        0.0725
      6 N         139.7756  145.6083  163.6856 N.3     1  UNL1       -0.2972
      7 C         139.1427  144.8454  164.8114 C.3     1  UNL1        0.0725
      8 C         139.1164  143.3460  164.7797 C.3     1  UNL1        0.0614
      9 O         139.0900  141.8465  164.7481 O.3     1  UNL1       -0.4785
     10 C         139.0637  140.3471  164.7164 C.ar    1  UNL1        0.1386
     11 C         138.4308  139.5841  165.8422 C.ar    1  UNL1        0.0369
     12 C         138.4045  138.0847  165.8105 C.ar    1  UNL1        0.0031
     13 C         139.0111  137.3482  164.6531 C.ar    1  UNL1        0.0002
     14 C         139.6440  138.1111  163.5274 C.ar    1  UNL1        0.0030
     15 C         139.6703  139.6106  163.5590 C.ar    1  UNL1        0.0338
     16 H         139.0541  146.2182  163.3010 H       1  UNL1        0.1233
     17 C         142.1231  138.1641  158.9610 C.ar    1  UNL1        0.1347
     18 C         142.9727  138.5416  160.1381 C.ar    1  UNL1        0.0238
     19 C         142.3661  139.2781  161.2955 C.ar    1  UNL1        0.0032
     20 C         140.9099  139.6370  161.2759 C.ar    1  UNL1        0.0191
     21 C         140.0601  139.2595  160.0987 C.ar    1  UNL1        0.0989
     22 N         140.6667  138.5230  158.9413 N.ar    1  UNL1       -0.2393
     23 N         143.1977  138.1838  156.5957 N.am    1  UNL1       -0.2748
     24 C         142.7297  137.4276  157.8036 C.2     1  UNL1        0.2668
     25 O         142.8683  135.9348  157.8542 O.2     1  UNL1       -0.2683
     26 C         142.9330  136.6349  154.5266 C.3     1  UNL1        0.0233
     27 C         143.8043  137.4473  155.4383 C.3     1  UNL1        0.0938
     28 C         143.0591  139.6765  156.5452 C.3     1  UNL1        0.0938
     29 C         144.1902  140.5506  156.9994 C.3     1  UNL1        0.0233
@<TRIPOS>BOND
     1    26    27    1
     2    27    23    1
     3    23    28    1
     4    28    29    1
     5    23    24   am
     6    24    25    2
     7    24    17    1
     8    17    18   ar
     9    18    19   ar
    10    19    20   ar
    11    20     1    1
    12     1     2    2
    13     2     3    1
    14     3     4    1
    15     4     5    1
    16     5     6    1
    17     6     7    1
    18     7     8    1
    19     3     9    1
    20     9    10    1
    21    10    11   ar
    22    11    12   ar
    23    12    13   ar
    24    13    14   ar
    25    14    15   ar
    26    20    21   ar
    27    21    22   ar
    28    22    17   ar
    29    15     1    1
    30     8     3    1
    31    15    10   ar
    32     6    16    1
@<TRIPOS>MOLECULE
*****
 29 32 0 0 0
SMALL
GASTEIGER

@<TRIPOS>ATOM
      1 C         141.5737  140.7548  160.6074 C.2     1  UNL1        0.0035
      2 C         140.1603  140.6700  161.1025 C.2     1  UNL1        0.0130
      3 C         139.7050  141.5531  162.2263 C.3     1  UNL1        0.1542
      4 C         138.7469  140.5852  161.5976 C.3     1  UNL1        0.0614
      5 C         137.3336  140.5005  162.0927 C.3     1  UNL1        0.0725
      6 N         136.8783  141.3836  163.2165 N.3     1  UNL1       -0.2972
      7 C         137.8364  142.3514  163.8452 C.3     1  UNL1        0.0725
      8 C         139.2498  142.4361  163.3501 C.3     1  UNL1        0.0614
      9 O         140.6632  142.5209  162.8550 O.3     1  UNL1       -0.4785
     10 C         142.0766  142.6057  162.3599 C.ar    1  UNL1        0.1386
     11 C         143.0348  143.5735  162.9886 C.ar    1  UNL1        0.0369
     12 C         144.4481  143.6583  162.4936 C.ar    1  UNL1        0.0031
     13 C         144.9034  142.7752  161.3697 C.ar    1  UNL1        0.0002
     14 C         143.9453  141.8074  160.7410 C.ar    1  UNL1        0.0030
     15 C         142.5318  141.7226  161.2361 C.ar    1  UNL1        0.0338
     16 H         136.5510  140.7677  163.9608 H       1  UNL1        0.1233
     17 C         142.9395  138.1056  157.2360 C.ar    1  UNL1        0.1347
     18 C         142.4611  139.4980  156.9491 C.ar    1  UNL1        0.0238
     19 C         142.0059  140.3811  158.0729 C.ar    1  UNL1        0.0032
     20 C         142.0290  139.8717  159.4836 C.ar    1  UNL1        0.0191
     21 C         142.5074  138.4793  159.7705 C.ar    1  UNL1        0.0989
     22 N         142.9627  137.5962  158.6467 N.ar    1  UNL1       -0.2393
     23 N         142.4334  136.2634  155.4753 N.am    1  UNL1       -0.2748
     24 C         143.3948  137.2226  156.1122 C.2     1  UNL1        0.2668
     25 O         144.8116  137.2987  155.6252 O.2     1  UNL1       -0.2683
     26 C         141.9640  135.0851  153.2078 C.3     1  UNL1        0.0233
     27 C         142.8886  135.3803  154.3515 C.3     1  UNL1        0.0938
     28 C         141.0166  136.1873  155.9623 C.3     1  UNL1        0.0938
     29 C         139.9798  137.1147  155.4011 C.3     1  UNL1        0.0233
@<TRIPOS>BOND
     1    26    27    1
     2    27    23    1
     3    23    28    1
     4    28    29    1
     5    23    24   am
     6    24    25    2
     7    24    17    1
     8    17    18   ar
     9    18    19   ar
    10    19    20   ar
    11    20     1    1
    12     1     2    2
    13     2     3    1
    14     3     4    1
    15     4     5    1
    16     5     6    1
    17     6     7    1
    18     7     8    1
    19     3     9    1
    20     9    10    1
    21    10    11   ar
    22    11    12   ar
    23    12    13   ar
    24    13    14   ar
    25    14    15   ar
    26    20    21   ar
    27    21    22   ar
    28    22    17   ar
    29    15     1    1
    30     8     3    1
    31    15    10   ar
    32     6    16    1
@<TRIPOS>MOLECULE
*****
 29 32 0 0 0
SMALL
GASTEIGER

@<TRIPOS>ATOM
      1 C         142.1232  141.5770  166.2495 C.2     1  UNL1        0.0035
      2 C         141.4533  142.3356  167.3567 C.2     1  UNL1        0.0130
      3 C         141.4049  141.7571  168.7399 C.3     1  UNL1        0.1542
      4 C         140.7834  143.0941  168.4639 C.3     1  UNL1        0.0614
      5 C         140.1135  143.8525  169.5711 C.3     1  UNL1        0.0725
      6 N         140.0651  143.2741  170.9542 N.3     1  UNL1       -0.2972
      7 C         140.6866  141.9371  171.2302 C.3     1  UNL1        0.0725
      8 C         141.3565  141.1786  170.1230 C.3     1  UNL1        0.0614
      9 O         142.0264  140.4200  169.0158 O.3     1  UNL1       -0.4785
     10 C         142.6963  139.6616  167.9086 C.ar    1  UNL1        0.1386
     11 C         143.3179  138.3245  168.1845 C.ar    1  UNL1        0.0369
     12 C         143.9878  137.5660  167.0773 C.ar    1  UNL1        0.0031
     13 C         144.0362  138.1445  165.6942 C.ar    1  UNL1        0.0002
     14 C         143.4146  139.4815  165.4183 C.ar    1  UNL1        0.0030
     15 C         142.7447  140.2400  166.5255 C.ar    1  UNL1        0.0338
     16 H         139.0799  143.1987  171.2076 H       1  UNL1        0.1233
     17 C         142.2683  143.3124  162.1002 C.ar    1  UNL1        0.1347
     18 C         141.2784  142.2343  162.4280 C.ar    1  UNL1        0.0238
     19 C         141.2300  141.6558  163.8111 C.ar    1  UNL1        0.0032
     20 C         142.1716  142.1555  164.8664 C.ar    1  UNL1        0.0191
     21 C         143.1616  143.2337  164.5386 C.ar    1  UNL1        0.0989
     22 N         143.2100  143.8122  163.1555 N.ar    1  UNL1       -0.2393
     23 N         141.1870  144.7438  160.2209 N.am    1  UNL1       -0.2748
     24 C         142.3167  143.8909  160.7170 C.2     1  UNL1        0.2668
     25 O         143.4949  143.6165  159.8301 O.2     1  UNL1       -0.2683
     26 C         139.9772  145.4393  158.0293 C.3     1  UNL1        0.0233
     27 C         141.2354  145.3223  158.8377 C.3     1  UNL1        0.0938
     28 C         140.0088  145.0182  161.1078 C.3     1  UNL1        0.0938
     29 C         139.9801  146.2555  161.9553 C.3     1  UNL1        0.0233
@<TRIPOS>BOND
     1    26    27    1
     2    27    23    1
     3    23    28    1
     4    28    29    1
     5    23    24   am
     6    24    25    2
     7    24    17    1
     8    17    18   ar
     9    18    19   ar
    10    19    20   ar
    11    20     1    1
    12     1     2    2
    13     2     3    1
    14     3     4    1
    15     4     5    1
    16     5     6    1
    17     6     7    1
    18     7     8    1
    19     3     9    1
    20     9    10    1
    21    10    11   ar
    22    11    12   ar
    23    12    13   ar
    24    13    14   ar
    25    14    15   ar
    26    20    21   ar
    27    21    22   ar
    28    22    17   ar
    29    15     1    1
    30     8     3    1
    31    15    10   ar
    32     6    16    1
