@<TRIPOS>MOLECULE
*****
 23 25 0 0 0
SMALL
GASTEIGER

@<TRIPOS>ATOM
      1 C         144.0348  141.8154  162.5130 C.3     1  UNL1        0.4092
      2 N         142.9560  142.8306  162.2770 N.ar    1  UNL1       -0.1494
      3 C         142.7658  143.4189  160.9104 C.ar    1  UNL1        0.2701
      4 C         141.6870  144.4341  160.6744 C.ar    1  UNL1        0.0787
      5 C         140.7985  144.8609  161.8050 C.ar    1  UNL1        0.0136
      6 C         140.9887  144.2725  163.1716 C.ar    1  UNL1        0.0787
      7 C         142.0675  143.2573  163.4075 C.ar    1  UNL1        0.2701
      8 C         143.6544  142.9922  159.7797 C.1     1  UNL1        0.0086
      9 C         144.5429  142.5654  158.6491 C.1     1  UNL1       -0.0540
     10 C         145.4315  142.1386  157.5184 C.ar    1  UNL1        0.0422
     11 C         146.7588  142.8067  157.3144 C.ar    1  UNL1        0.0082
     12 C         147.6473  142.3799  156.1838 C.ar    1  UNL1        0.0006
     13 C         147.2085  141.2851  155.2571 C.ar    1  UNL1        0.0000
     14 C         145.8811  140.6170  155.4611 C.ar    1  UNL1        0.0006
     15 C         144.9926  141.0438  156.5917 C.ar    1  UNL1        0.0082
     16 C         142.2576  142.6690  164.7742 C.1     1  UNL1        0.0086
     17 C         142.4478  142.0806  166.1408 C.1     1  UNL1       -0.0540
     18 C         142.6380  141.4922  167.5075 C.ar    1  UNL1        0.0422
     19 C         143.2305  142.3239  168.6063 C.ar    1  UNL1        0.0082
     20 C         143.4207  141.7356  169.9729 C.ar    1  UNL1        0.0006
     21 C         143.0184  140.3156  170.2407 C.ar    1  UNL1        0.0000
     22 C         142.4259  139.4840  169.1420 C.ar    1  UNL1        0.0006
     23 C         142.2357  140.0723  167.7753 C.ar    1  UNL1        0.0082
@<TRIPOS>UNITY_ATOM_ATTR
2 1
charge 1
@<TRIPOS>BOND
     1     1     2    1
     2     2     3   ar
     3     3     8    1
     4     8     9    3
     5     9    10    1
     6    10    11   ar
     7    11    12   ar
     8    12    13   ar
     9    13    14   ar
    10    14    15   ar
    11     3     4   ar
    12     4     5   ar
    13     5     6   ar
    14     6     7   ar
    15     7    16    1
    16    16    17    3
    17    17    18    1
    18    18    19   ar
    19    19    20   ar
    20    20    21   ar
    21    21    22   ar
    22    22    23   ar
    23     7     2   ar
    24    23    18   ar
    25    15    10   ar
@<TRIPOS>MOLECULE
*****
 23 25 0 0 0
SMALL
GASTEIGER

@<TRIPOS>ATOM
      1 C         144.0334  141.8297  162.5128 C.3     1  UNL1        0.4092
      2 N         142.9539  142.8441  162.2767 N.ar    1  UNL1       -0.1494
      3 C         142.0654  143.2707  163.4073 C.ar    1  UNL1        0.2701
      4 C         140.9858  144.2850  163.1712 C.ar    1  UNL1        0.0787
      5 C         140.7949  144.8727  161.8045 C.ar    1  UNL1        0.0136
      6 C         141.6834  144.4461  160.6738 C.ar    1  UNL1        0.0787
      7 C         142.7629  143.4318  160.9099 C.ar    1  UNL1        0.2701
      8 C         142.2563  142.6830  164.7742 C.1     1  UNL1        0.0086
      9 C         142.4473  142.0952  166.1409 C.1     1  UNL1       -0.0540
     10 C         142.6382  141.5075  167.5078 C.ar    1  UNL1        0.0422
     11 C         143.2300  142.3401  168.6062 C.ar    1  UNL1        0.0082
     12 C         143.4209  141.7524  169.9730 C.ar    1  UNL1        0.0006
     13 C         143.0200  140.3320  170.2413 C.ar    1  UNL1        0.0000
     14 C         142.4283  139.4994  169.1429 C.ar    1  UNL1        0.0006
     15 C         142.2374  140.0872  167.7761 C.ar    1  UNL1        0.0082
     16 C         143.6515  143.0052  159.7792 C.1     1  UNL1        0.0086
     17 C         144.5400  142.5786  158.6485 C.1     1  UNL1       -0.0540
     18 C         145.4286  142.1520  157.5177 C.ar    1  UNL1        0.0422
     19 C         146.7619  142.8108  157.3220 C.ar    1  UNL1        0.0082
     20 C         147.6504  142.3842  156.1913 C.ar    1  UNL1        0.0006
     21 C         147.2057  141.2989  155.2564 C.ar    1  UNL1        0.0000
     22 C         145.8724  140.6401  155.4521 C.ar    1  UNL1        0.0006
     23 C         144.9838  141.0666  156.5828 C.ar    1  UNL1        0.0082
@<TRIPOS>UNITY_ATOM_ATTR
2 1
charge 1
@<TRIPOS>BOND
     1     1     2    1
     2     2     3   ar
     3     3     8    1
     4     8     9    3
     5     9    10    1
     6    10    11   ar
     7    11    12   ar
     8    12    13   ar
     9    13    14   ar
    10    14    15   ar
    11     3     4   ar
    12     4     5   ar
    13     5     6   ar
    14     6     7   ar
    15     7    16    1
    16    16    17    3
    17    17    18    1
    18    18    19   ar
    19    19    20   ar
    20    20    21   ar
    21    21    22   ar
    22    22    23   ar
    23     7     2   ar
    24    23    18   ar
    25    15    10   ar
@<TRIPOS>MOLECULE
*****
 23 25 0 0 0
SMALL
GASTEIGER

@<TRIPOS>ATOM
      1 C         142.2336  142.2320  162.7606 C.3     1  UNL1        0.4092
      2 N         141.4545  143.4720  162.4358 N.ar    1  UNL1       -0.1494
      3 C         140.5822  144.1045  163.4793 C.ar    1  UNL1        0.2701
      4 C         139.8032  145.3445  163.1545 C.ar    1  UNL1        0.0787
      5 C         139.8964  145.9519  161.7862 C.ar    1  UNL1        0.0136
      6 C         140.7687  145.3194  160.7427 C.ar    1  UNL1        0.0787
      7 C         141.5478  144.0794  161.0675 C.ar    1  UNL1        0.2701
      8 C         140.4889  143.4971  164.8477 C.1     1  UNL1        0.0086
      9 C         140.3957  142.8897  166.2160 C.1     1  UNL1       -0.0540
     10 C         140.3024  142.2823  167.5844 C.ar    1  UNL1        0.0422
     11 C         140.0734  140.8077  167.7364 C.ar    1  UNL1        0.0082
     12 C         139.9801  140.2004  169.1047 C.ar    1  UNL1        0.0006
     13 C         140.1159  141.0676  170.3210 C.ar    1  UNL1        0.0000
     14 C         140.3449  142.5422  170.1691 C.ar    1  UNL1        0.0006
     15 C         140.4382  143.1495  168.8007 C.ar    1  UNL1        0.0082
     16 C         142.4201  143.4468  160.0239 C.1     1  UNL1        0.0086
     17 C         143.2924  142.8142  158.9804 C.1     1  UNL1       -0.0540
     18 C         144.1647  142.1817  157.9369 C.ar    1  UNL1        0.0422
     19 C         143.6278  141.0714  157.0830 C.ar    1  UNL1        0.0082
     20 C         144.5000  140.4389  156.0395 C.ar    1  UNL1        0.0006
     21 C         145.9092  140.9165  155.8498 C.ar    1  UNL1        0.0000
     22 C         146.4461  142.0268  156.7037 C.ar    1  UNL1        0.0006
     23 C         145.5739  142.6593  157.7472 C.ar    1  UNL1        0.0082
@<TRIPOS>UNITY_ATOM_ATTR
2 1
charge 1
@<TRIPOS>BOND
     1     1     2    1
     2     2     3   ar
     3     3     8    1
     4     8     9    3
     5     9    10    1
     6    10    11   ar
     7    11    12   ar
     8    12    13   ar
     9    13    14   ar
    10    14    15   ar
    11     3     4   ar
    12     4     5   ar
    13     5     6   ar
    14     6     7   ar
    15     7    16    1
    16    16    17    3
    17    17    18    1
    18    18    19   ar
    19    19    20   ar
    20    20    21   ar
    21    21    22   ar
    22    22    23   ar
    23     7     2   ar
    24    23    18   ar
    25    15    10   ar
@<TRIPOS>MOLECULE
*****
 23 25 0 0 0
SMALL
GASTEIGER

@<TRIPOS>ATOM
      1 C         142.2386  142.2580  162.7713 C.3     1  UNL1        0.4092
      2 N         141.4582  143.4963  162.4431 N.ar    1  UNL1       -0.1494
      3 C         141.5528  144.1015  161.0739 C.ar    1  UNL1        0.2701
      4 C         140.7725  145.3398  160.7457 C.ar    1  UNL1        0.0787
      5 C         139.8976  145.9729  161.7867 C.ar    1  UNL1        0.0136
      6 C         139.8030  145.3677  163.1559 C.ar    1  UNL1        0.0787
      7 C         140.5833  144.1294  163.4841 C.ar    1  UNL1        0.2701
      8 C         142.4278  143.4685  160.0328 C.1     1  UNL1        0.0086
      9 C         143.3027  142.8354  158.9918 C.1     1  UNL1       -0.0540
     10 C         144.1776  142.2024  157.9507 C.ar    1  UNL1        0.0422
     11 C         143.6436  141.0902  157.0975 C.ar    1  UNL1        0.0082
     12 C         144.5185  140.4572  156.0565 C.ar    1  UNL1        0.0006
     13 C         145.9275  140.9364  155.8687 C.ar    1  UNL1        0.0000
     14 C         146.4615  142.0485  156.7219 C.ar    1  UNL1        0.0006
     15 C         145.5866  142.6815  157.7629 C.ar    1  UNL1        0.0082
     16 C         140.4887  143.5242  164.8533 C.1     1  UNL1        0.0086
     17 C         140.3941  142.9190  166.2225 C.1     1  UNL1       -0.0540
     18 C         140.2995  142.3138  167.5918 C.ar    1  UNL1        0.0422
     19 C         140.0868  140.8370  167.7460 C.ar    1  UNL1        0.0082
     20 C         139.9922  140.2317  169.1151 C.ar    1  UNL1        0.0006
     21 C         140.1102  141.1033  170.3302 C.ar    1  UNL1        0.0000
     22 C         140.3229  142.5802  170.1760 C.ar    1  UNL1        0.0006
     23 C         140.4175  143.1854  168.8069 C.ar    1  UNL1        0.0082
@<TRIPOS>UNITY_ATOM_ATTR
2 1
charge 1
@<TRIPOS>BOND
     1     1     2    1
     2     2     3   ar
     3     3     8    1
     4     8     9    3
     5     9    10    1
     6    10    11   ar
     7    11    12   ar
     8    12    13   ar
     9    13    14   ar
    10    14    15   ar
    11     3     4   ar
    12     4     5   ar
    13     5     6   ar
    14     6     7   ar
    15     7    16    1
    16    16    17    3
    17    17    18    1
    18    18    19   ar
    19    19    20   ar
    20    20    21   ar
    21    21    22   ar
    22    22    23   ar
    23     7     2   ar
    24    23    18   ar
    25    15    10   ar
@<TRIPOS>MOLECULE
*****
 23 25 0 0 0
SMALL
GASTEIGER

@<TRIPOS>ATOM
      1 C         139.7624  141.9788  162.9277 C.3     1  UNL1        0.4092
      2 N         139.4139  140.5214  162.9959 N.ar    1  UNL1       -0.1494
      3 C         138.8474  139.8286  161.7922 C.ar    1  UNL1        0.2701
      4 C         138.4990  138.3712  161.8604 C.ar    1  UNL1        0.0787
      5 C         138.7171  137.6066  163.1323 C.ar    1  UNL1        0.0136
      6 C         139.2836  138.2994  164.3360 C.ar    1  UNL1        0.0787
      7 C         139.6320  139.7568  164.2679 C.ar    1  UNL1        0.2701
      8 C         138.6293  140.5931  160.5202 C.1     1  UNL1        0.0086
      9 C         138.4112  141.3577  159.2483 C.1     1  UNL1       -0.0540
     10 C         138.1930  142.1223  157.9763 C.ar    1  UNL1        0.0422
     11 C         137.0759  141.7376  157.0522 C.ar    1  UNL1        0.0082
     12 C         136.8578  142.5022  155.7803 C.ar    1  UNL1        0.0006
     13 C         137.7569  143.6514  155.4324 C.ar    1  UNL1        0.0000
     14 C         138.8740  144.0360  156.3565 C.ar    1  UNL1        0.0006
     15 C         139.0921  143.2715  157.6284 C.ar    1  UNL1        0.0082
     16 C         140.1986  140.4496  165.4717 C.1     1  UNL1        0.0086
     17 C         140.7651  141.1424  166.6755 C.1     1  UNL1       -0.0540
     18 C         141.3317  141.8352  167.8793 C.ar    1  UNL1        0.0422
     19 C         140.4688  142.7564  168.6897 C.ar    1  UNL1        0.0082
     20 C         141.0353  143.4492  169.8935 C.ar    1  UNL1        0.0006
     21 C         142.4646  143.2208  170.2868 C.ar    1  UNL1        0.0000
     22 C         143.3275  142.2996  169.4763 C.ar    1  UNL1        0.0006
     23 C         142.7610  141.6068  168.2726 C.ar    1  UNL1        0.0082
@<TRIPOS>UNITY_ATOM_ATTR
2 1
charge 1
@<TRIPOS>BOND
     1     1     2    1
     2     2     3   ar
     3     3     8    1
     4     8     9    3
     5     9    10    1
     6    10    11   ar
     7    11    12   ar
     8    12    13   ar
     9    13    14   ar
    10    14    15   ar
    11     3     4   ar
    12     4     5   ar
    13     5     6   ar
    14     6     7   ar
    15     7    16    1
    16    16    17    3
    17    17    18    1
    18    18    19   ar
    19    19    20   ar
    20    20    21   ar
    21    21    22   ar
    22    22    23   ar
    23     7     2   ar
    24    23    18   ar
    25    15    10   ar
@<TRIPOS>MOLECULE
*****
 23 25 0 0 0
SMALL
GASTEIGER

@<TRIPOS>ATOM
      1 C         139.8288  141.9943  162.9808 C.3     1  UNL1        0.4092
      2 N         139.4719  140.5388  163.0454 N.ar    1  UNL1       -0.1494
      3 C         139.6839  139.7704  164.3160 C.ar    1  UNL1        0.2701
      4 C         139.3270  138.3149  164.3806 C.ar    1  UNL1        0.0787
      5 C         138.7582  137.6279  163.1747 C.ar    1  UNL1        0.0136
      6 C         138.5463  138.3964  161.9041 C.ar    1  UNL1        0.0787
      7 C         138.9031  139.8518  161.8395 C.ar    1  UNL1        0.2701
      8 C         140.2527  140.4574  165.5221 C.1     1  UNL1        0.0086
      9 C         140.8215  141.1443  166.7281 C.1     1  UNL1       -0.0540
     10 C         141.3903  141.8313  167.9342 C.ar    1  UNL1        0.0422
     11 C         142.8178  141.5941  168.3288 C.ar    1  UNL1        0.0082
     12 C         143.3866  142.2811  169.5348 C.ar    1  UNL1        0.0006
     13 C         142.5278  143.2053  170.3462 C.ar    1  UNL1        0.0000
     14 C         141.1003  143.4425  169.9516 C.ar    1  UNL1        0.0006
     15 C         140.5315  142.7556  168.7456 C.ar    1  UNL1        0.0082
     16 C         138.6912  140.6203  160.5688 C.1     1  UNL1        0.0086
     17 C         138.4792  141.3888  159.2982 C.1     1  UNL1       -0.0540
     18 C         138.2672  142.1573  158.0275 C.ar    1  UNL1        0.0422
     19 C         137.1343  141.7965  157.1129 C.ar    1  UNL1        0.0082
     20 C         136.9224  142.5649  155.8423 C.ar    1  UNL1        0.0006
     21 C         137.8432  143.6942  155.4862 C.ar    1  UNL1        0.0000
     22 C         138.9761  144.0550  156.4008 C.ar    1  UNL1        0.0006
     23 C         139.1881  143.2865  157.6714 C.ar    1  UNL1        0.0082
@<TRIPOS>UNITY_ATOM_ATTR
2 1
charge 1
@<TRIPOS>BOND
     1     1     2    1
     2     2     3   ar
     3     3     8    1
     4     8     9    3
     5     9    10    1
     6    10    11   ar
     7    11    12   ar
     8    12    13   ar
     9    13    14   ar
    10    14    15   ar
    11     3     4   ar
    12     4     5   ar
    13     5     6   ar
    14     6     7   ar
    15     7    16    1
    16    16    17    3
    17    17    18    1
    18    18    19   ar
    19    19    20   ar
    20    20    21   ar
    21    21    22   ar
    22    22    23   ar
    23     7     2   ar
    24    23    18   ar
    25    15    10   ar
@<TRIPOS>MOLECULE
*****
 23 25 0 0 0
SMALL
GASTEIGER

@<TRIPOS>ATOM
      1 C         141.2398  143.3122  162.9241 C.3     1  UNL1        0.4092
      2 N         142.6392  142.7743  162.8735 N.ar    1  UNL1       -0.1494
      3 C         143.4394  142.8835  161.6096 C.ar    1  UNL1        0.2701
      4 C         144.8388  142.3457  161.5590 C.ar    1  UNL1        0.0787
      5 C         145.4378  141.6986  162.7724 C.ar    1  UNL1        0.0136
      6 C         144.6376  141.5894  164.0364 C.ar    1  UNL1        0.0787
      7 C         143.2382  142.1273  164.0869 C.ar    1  UNL1        0.2701
      8 C         142.8403  143.5306  160.3961 C.1     1  UNL1        0.0086
      9 C         142.2414  144.1776  159.1826 C.1     1  UNL1       -0.0540
     10 C         141.6423  144.8247  157.9692 C.ar    1  UNL1        0.0422
     11 C         142.2318  144.5678  156.6140 C.ar    1  UNL1        0.0082
     12 C         141.6327  145.2149  155.4006 C.ar    1  UNL1        0.0006
     13 C         140.4441  146.1189  155.5424 C.ar    1  UNL1        0.0000
     14 C         139.8546  146.3758  156.8975 C.ar    1  UNL1        0.0006
     15 C         140.4537  145.7287  158.1109 C.ar    1  UNL1        0.0082
     16 C         142.4380  142.0180  165.3510 C.1     1  UNL1        0.0086
     17 C         141.6377  141.9088  166.6149 C.1     1  UNL1       -0.0540
     18 C         140.8374  141.7995  167.8789 C.ar    1  UNL1        0.0422
     19 C         140.8004  142.9468  168.8446 C.ar    1  UNL1        0.0082
     20 C         140.0001  142.8376  170.1086 C.ar    1  UNL1        0.0006
     21 C         139.2370  141.5812  170.4069 C.ar    1  UNL1        0.0000
     22 C         139.2741  140.4340  169.4412 C.ar    1  UNL1        0.0006
     23 C         140.0743  140.5431  168.1772 C.ar    1  UNL1        0.0082
@<TRIPOS>UNITY_ATOM_ATTR
2 1
charge 1
@<TRIPOS>BOND
     1     1     2    1
     2     2     3   ar
     3     3     8    1
     4     8     9    3
     5     9    10    1
     6    10    11   ar
     7    11    12   ar
     8    12    13   ar
     9    13    14   ar
    10    14    15   ar
    11     3     4   ar
    12     4     5   ar
    13     5     6   ar
    14     6     7   ar
    15     7    16    1
    16    16    17    3
    17    17    18    1
    18    18    19   ar
    19    19    20   ar
    20    20    21   ar
    21    21    22   ar
    22    22    23   ar
    23     7     2   ar
    24    23    18   ar
    25    15    10   ar
@<TRIPOS>MOLECULE
*****
 23 25 0 0 0
SMALL
GASTEIGER

@<TRIPOS>ATOM
      1 C         142.2780  140.4189  162.8475 C.3     1  UNL1        0.4092
      2 N         141.0542  139.5522  162.8801 N.ar    1  UNL1       -0.1494
      3 C         140.2451  139.4441  164.1385 C.ar    1  UNL1        0.2701
      4 C         139.0212  138.5774  164.1711 C.ar    1  UNL1        0.0787
      5 C         138.6065  137.8188  162.9453 C.ar    1  UNL1        0.0136
      6 C         139.4156  137.9269  161.6870 C.ar    1  UNL1        0.0787
      7 C         140.6395  138.7936  161.6543 C.ar    1  UNL1        0.2701
      8 C         140.6598  140.2026  165.3643 C.1     1  UNL1        0.0086
      9 C         141.0745  140.9612  166.5901 C.1     1  UNL1       -0.0540
     10 C         141.4892  141.7198  167.8160 C.ar    1  UNL1        0.0422
     11 C         140.5156  142.6360  168.4961 C.ar    1  UNL1        0.0082
     12 C         140.9303  143.3945  169.7219 C.ar    1  UNL1        0.0006
     13 C         142.3186  143.2368  170.2675 C.ar    1  UNL1        0.0000
     14 C         143.2922  142.3206  169.5874 C.ar    1  UNL1        0.0006
     15 C         142.8775  141.5621  168.3616 C.ar    1  UNL1        0.0082
     16 C         141.4486  138.9018  160.3958 C.1     1  UNL1        0.0086
     17 C         142.2576  139.0099  159.1374 C.1     1  UNL1       -0.0540
     18 C         143.0668  139.1180  157.8789 C.ar    1  UNL1        0.0422
     19 C         143.9661  140.2992  157.6647 C.ar    1  UNL1        0.0082
     20 C         144.7752  140.4073  156.4063 C.ar    1  UNL1        0.0006
     21 C         144.6850  139.3343  155.3621 C.ar    1  UNL1        0.0000
     22 C         143.7856  138.1531  155.5764 C.ar    1  UNL1        0.0006
     23 C         142.9765  138.0449  156.8348 C.ar    1  UNL1        0.0082
@<TRIPOS>UNITY_ATOM_ATTR
2 1
charge 1
@<TRIPOS>BOND
     1     1     2    1
     2     2     3   ar
     3     3     8    1
     4     8     9    3
     5     9    10    1
     6    10    11   ar
     7    11    12   ar
     8    12    13   ar
     9    13    14   ar
    10    14    15   ar
    11     3     4   ar
    12     4     5   ar
    13     5     6   ar
    14     6     7   ar
    15     7    16    1
    16    16    17    3
    17    17    18    1
    18    18    19   ar
    19    19    20   ar
    20    20    21   ar
    21    21    22   ar
    22    22    23   ar
    23     7     2   ar
    24    23    18   ar
    25    15    10   ar
@<TRIPOS>MOLECULE
*****
 23 25 0 0 0
SMALL
GASTEIGER

@<TRIPOS>ATOM
      1 C         142.2658  140.4044  162.7375 C.3     1  UNL1        0.4092
      2 N         141.0121  139.5810  162.7489 N.ar    1  UNL1       -0.1494
      3 C         140.5896  138.8409  161.5145 C.ar    1  UNL1        0.2701
      4 C         139.3358  138.0175  161.5259 C.ar    1  UNL1        0.0787
      5 C         138.5046  137.9341  162.7717 C.ar    1  UNL1        0.0136
      6 C         138.9271  138.6742  164.0061 C.ar    1  UNL1        0.0787
      7 C         140.1808  139.4976  163.9947 C.ar    1  UNL1        0.2701
      8 C         141.4208  138.9243  160.2686 C.1     1  UNL1        0.0086
      9 C         142.2520  139.0075  159.0228 C.1     1  UNL1       -0.0540
     10 C         143.0833  139.0909  157.7769 C.ar    1  UNL1        0.0422
     11 C         143.9603  140.2843  157.5389 C.ar    1  UNL1        0.0082
     12 C         144.7915  140.3676  156.2931 C.ar    1  UNL1        0.0006
     13 C         144.7457  139.2575  155.2853 C.ar    1  UNL1        0.0000
     14 C         143.8688  138.0641  155.5234 C.ar    1  UNL1        0.0006
     15 C         143.0376  137.9808  156.7692 C.ar    1  UNL1        0.0082
     16 C         140.6033  140.2377  165.2292 C.1     1  UNL1        0.0086
     17 C         141.0257  140.9777  166.4636 C.1     1  UNL1       -0.0540
     18 C         141.4482  141.7178  167.6981 C.ar    1  UNL1        0.0422
     19 C         140.4725  142.6072  168.4101 C.ar    1  UNL1        0.0082
     20 C         140.8949  143.3473  169.6445 C.ar    1  UNL1        0.0006
     21 C         142.2930  143.1979  170.1669 C.ar    1  UNL1        0.0000
     22 C         143.2687  142.3085  169.4549 C.ar    1  UNL1        0.0006
     23 C         142.8463  141.5684  168.2205 C.ar    1  UNL1        0.0082
@<TRIPOS>UNITY_ATOM_ATTR
2 1
charge 1
@<TRIPOS>BOND
     1     1     2    1
     2     2     3   ar
     3     3     8    1
     4     8     9    3
     5     9    10    1
     6    10    11   ar
     7    11    12   ar
     8    12    13   ar
     9    13    14   ar
    10    14    15   ar
    11     3     4   ar
    12     4     5   ar
    13     5     6   ar
    14     6     7   ar
    15     7    16    1
    16    16    17    3
    17    17    18    1
    18    18    19   ar
    19    19    20   ar
    20    20    21   ar
    21    21    22   ar
    22    22    23   ar
    23     7     2   ar
    24    23    18   ar
    25    15    10   ar
