@<TRIPOS>MOLECULE
*****
 24 26 0 0 0
SMALL
GASTEIGER

@<TRIPOS>ATOM
      1 C         140.1087  139.9419  167.7742 C.ar    1  UNL1        0.0177
      2 C         138.8640  139.8245  168.6028 C.ar    1  UNL1        0.0047
      3 C         138.8120  140.4403  169.9696 C.ar    1  UNL1        0.0393
      4 C         140.0049  141.1734  170.5077 C.ar    1  UNL1        0.1703
      5 N         140.2467  141.8778  171.8098 N.ar    1  UNL1       -0.1285
      6 N         141.6409  142.4305  171.7859 N.ar    1  UNL1       -0.1243
      7 C         142.2608  142.0677  170.4690 C.ar    1  UNL1        0.2424
      8 N         141.2497  141.2908  169.6791 N.ar    1  UNL1       -0.2692
      9 C         141.3016  140.6750  168.3123 C.ar    1  UNL1        0.0828
     10 C         140.2647  138.0947  163.6737 C.ar    1  UNL1        0.1468
     11 C         138.9706  138.1307  164.4313 C.ar    1  UNL1        0.0372
     12 C         138.9186  138.7465  165.7982 C.ar    1  UNL1        0.0032
     13 C         140.1607  139.3262  166.4073 C.ar    1  UNL1        0.0016
     14 C         141.4548  139.2902  165.6497 C.ar    1  UNL1        0.0032
     15 C         141.5068  138.6745  164.2829 C.ar    1  UNL1        0.0372
     16 O         140.3167  137.4790  162.3069 O.3     1  UNL1       -0.4045
     17 F         139.4218  139.0555  159.9165 F       1  UNL1       -0.1328
     18 C         139.8692  138.2672  161.1117 C.3     1  UNL1        0.5753
     19 F         141.2635  138.7914  160.9354 F       1  UNL1       -0.1328
     20 F         138.4750  137.7431  161.2880 F       1  UNL1       -0.1328
     21 C         143.6482  142.4200  170.0208 C.3     1  UNL1        0.4528
     22 F         145.0357  142.7723  169.5725 F       1  UNL1       -0.1631
     23 F         143.5467  143.7332  170.7385 F       1  UNL1       -0.1631
     24 F         143.7498  141.1068  169.3030 F       1  UNL1       -0.1631
@<TRIPOS>BOND
     1    17    18    1
     2    18    19    1
     3    18    20    1
     4    18    16    1
     5    16    10    1
     6    10    11   ar
     7    11    12   ar
     8    12    13   ar
     9    13     1    1
    10     1     2   ar
    11     2     3   ar
    12     3     4   ar
    13     4     5   ar
    14     5     6   ar
    15     6     7   ar
    16     7    21    1
    17    21    22    1
    18    21    23    1
    19    21    24    1
    20     7     8   ar
    21     8     9   ar
    22    13    14   ar
    23    14    15   ar
    24    15    10   ar
    25     9     1   ar
    26     8     4   ar
@<TRIPOS>MOLECULE
*****
 24 26 0 0 0
SMALL
GASTEIGER

@<TRIPOS>ATOM
      1 C         140.3747  139.9309  167.7621 C.ar    1  UNL1        0.0177
      2 C         139.0726  139.8302  168.4999 C.ar    1  UNL1        0.0047
      3 C         138.9231  140.4703  169.8481 C.ar    1  UNL1        0.0393
      4 C         140.0757  141.2111  170.4586 C.ar    1  UNL1        0.1703
      5 N         140.2240  141.9383  171.7623 N.ar    1  UNL1       -0.1285
      6 N         141.6179  142.4883  171.8301 N.ar    1  UNL1       -0.1243
      7 C         142.3309  142.1011  170.5685 C.ar    1  UNL1        0.2424
      8 N         141.3778  141.3118  169.7209 N.ar    1  UNL1       -0.2692
      9 C         141.5273  140.6716  168.3727 C.ar    1  UNL1        0.0828
     10 C         140.8234  138.0105  163.7172 C.ar    1  UNL1        0.1468
     11 C         142.0409  138.4093  164.4973 C.ar    1  UNL1        0.0372
     12 C         141.8914  139.0494  165.8456 C.ar    1  UNL1        0.0032
     13 C         140.5243  139.2907  166.4138 C.ar    1  UNL1        0.0016
     14 C         139.3068  138.8919  165.6337 C.ar    1  UNL1        0.0032
     15 C         139.4563  138.2518  164.2855 C.ar    1  UNL1        0.0372
     16 O         140.9729  137.3704  162.3690 O.3     1  UNL1       -0.4045
     17 F         140.5994  139.0063  159.8821 F       1  UNL1       -0.1328
     18 C         140.7862  138.1883  161.1256 C.3     1  UNL1        0.5753
     19 F         139.3550  137.7458  161.0494 F       1  UNL1       -0.1328
     20 F         142.2174  138.6308  161.2017 F       1  UNL1       -0.1328
     21 C         143.7483  142.4432  170.2163 C.3     1  UNL1        0.4528
     22 F         145.1658  142.7852  169.8641 F       1  UNL1       -0.1631
     23 F         143.9713  141.0361  169.7471 F       1  UNL1       -0.1631
     24 F         143.5253  143.8503  170.6856 F       1  UNL1       -0.1631
@<TRIPOS>BOND
     1    17    18    1
     2    18    19    1
     3    18    20    1
     4    18    16    1
     5    16    10    1
     6    10    11   ar
     7    11    12   ar
     8    12    13   ar
     9    13     1    1
    10     1     2   ar
    11     2     3   ar
    12     3     4   ar
    13     4     5   ar
    14     5     6   ar
    15     6     7   ar
    16     7    21    1
    17    21    22    1
    18    21    23    1
    19    21    24    1
    20     7     8   ar
    21     8     9   ar
    22    13    14   ar
    23    14    15   ar
    24    15    10   ar
    25     9     1   ar
    26     8     4   ar
@<TRIPOS>MOLECULE
*****
 24 26 0 0 0
SMALL
GASTEIGER

@<TRIPOS>ATOM
      1 C         140.8633  139.9459  167.3794 C.ar    1  UNL1        0.0177
      2 C         139.4779  139.7509  167.9203 C.ar    1  UNL1        0.0047
      3 C         139.1072  140.3224  169.2567 C.ar    1  UNL1        0.0393
      4 C         140.1220  141.0887  170.0523 C.ar    1  UNL1        0.1703
      5 N         140.0475  141.7630  171.3901 N.ar    1  UNL1       -0.1285
      6 N         141.3870  142.3747  171.6761 N.ar    1  UNL1       -0.1243
      7 C         142.2892  142.0784  170.5149 C.ar    1  UNL1        0.2424
      8 N         141.5074  141.2836  169.5114 N.ar    1  UNL1       -0.2692
      9 C         141.8781  140.7122  168.1750 C.ar    1  UNL1        0.0828
     10 C         141.9753  138.2316  163.3700 C.ar    1  UNL1        0.1468
     11 C         143.0336  138.8266  164.2509 C.ar    1  UNL1        0.0372
     12 C         142.6629  139.3980  165.5874 C.ar    1  UNL1        0.0032
     13 C         141.2340  139.3744  166.0429 C.ar    1  UNL1        0.0016
     14 C         140.1757  138.7794  165.1620 C.ar    1  UNL1        0.0032
     15 C         140.5463  138.2080  163.8256 C.ar    1  UNL1        0.0372
     16 O         142.3459  137.6602  162.0336 O.3     1  UNL1       -0.4045
     17 F         144.3371  139.0794  160.2954 F       1  UNL1       -0.1328
     18 C         143.3414  138.3698  161.1645 C.3     1  UNL1        0.5753
     19 F         144.3698  137.3282  161.4920 F       1  UNL1       -0.1328
     20 F         142.3130  139.4115  160.8370 F       1  UNL1       -0.1328
     21 C         143.7218  142.5024  170.3809 C.3     1  UNL1        0.4528
     22 F         145.1544  142.9266  170.2468 F       1  UNL1       -0.1631
     23 F         143.3258  143.9245  170.6475 F       1  UNL1       -0.1631
     24 F         144.1177  141.0804  170.1143 F       1  UNL1       -0.1631
@<TRIPOS>BOND
     1    17    18    1
     2    18    19    1
     3    18    20    1
     4    18    16    1
     5    16    10    1
     6    10    11   ar
     7    11    12   ar
     8    12    13   ar
     9    13     1    1
    10     1     2   ar
    11     2     3   ar
    12     3     4   ar
    13     4     5   ar
    14     5     6   ar
    15     6     7   ar
    16     7    21    1
    17    21    22    1
    18    21    23    1
    19    21    24    1
    20     7     8   ar
    21     8     9   ar
    22    13    14   ar
    23    14    15   ar
    24    15    10   ar
    25     9     1   ar
    26     8     4   ar
@<TRIPOS>MOLECULE
*****
 24 26 0 0 0
SMALL
GASTEIGER

@<TRIPOS>ATOM
      1 C         139.7508  139.2242  165.2568 C.ar    1  UNL1        0.0177
      2 C         139.6232  137.7886  164.8415 C.ar    1  UNL1        0.0047
      3 C         138.9469  137.4390  163.5490 C.ar    1  UNL1        0.0393
      4 C         138.3983  138.5252  162.6719 C.ar    1  UNL1        0.1703
      5 N         137.6862  138.4859  161.3522 N.ar    1  UNL1       -0.1285
      6 N         137.3737  139.8973  160.9520 N.ar    1  UNL1       -0.1243
      7 C         137.8927  140.8089  162.0243 C.ar    1  UNL1        0.2424
      8 N         138.5258  139.9608  163.0873 N.ar    1  UNL1       -0.2692
      9 C         139.2021  140.3103  164.3797 C.ar    1  UNL1        0.0828
     10 C         141.7796  140.2730  169.1343 C.ar    1  UNL1        0.1468
     11 C         140.2847  140.3360  169.0290 C.ar    1  UNL1        0.0372
     12 C         139.6084  139.9864  167.7365 C.ar    1  UNL1        0.0032
     13 C         140.4271  139.5738  166.5493 C.ar    1  UNL1        0.0016
     14 C         141.9220  139.5108  166.6545 C.ar    1  UNL1        0.0032
     15 C         142.5983  139.8604  167.9470 C.ar    1  UNL1        0.0372
     16 O         142.4559  140.6226  170.4267 O.3     1  UNL1       -0.4045
     17 F         143.1870  143.4722  171.0142 F       1  UNL1       -0.1328
     18 C         142.8214  142.0474  170.7204 C.3     1  UNL1        0.5753
     19 F         144.1228  141.8625  169.9978 F       1  UNL1       -0.1328
     20 F         141.5200  142.2322  171.4430 F       1  UNL1       -0.1328
     21 C         137.7955  142.3057  162.0323 C.3     1  UNL1        0.4528
     22 F         137.6983  143.8026  162.0404 F       1  UNL1       -0.1631
     23 F         136.9214  142.2424  163.2497 F       1  UNL1       -0.1631
     24 F         138.6696  142.3689  160.8150 F       1  UNL1       -0.1631
@<TRIPOS>BOND
     1    17    18    1
     2    18    19    1
     3    18    20    1
     4    18    16    1
     5    16    10    1
     6    10    11   ar
     7    11    12   ar
     8    12    13   ar
     9    13     1    1
    10     1     2   ar
    11     2     3   ar
    12     3     4   ar
    13     4     5   ar
    14     5     6   ar
    15     6     7   ar
    16     7    21    1
    17    21    22    1
    18    21    23    1
    19    21    24    1
    20     7     8   ar
    21     8     9   ar
    22    13    14   ar
    23    14    15   ar
    24    15    10   ar
    25     9     1   ar
    26     8     4   ar
@<TRIPOS>MOLECULE
*****
 24 26 0 0 0
SMALL
GASTEIGER

@<TRIPOS>ATOM
      1 C         139.6433  143.0268  164.5917 C.ar    1  UNL1        0.0177
      2 C         138.3571  143.7421  164.3020 C.ar    1  UNL1        0.0047
      3 C         138.2222  144.5677  163.0570 C.ar    1  UNL1        0.0393
      4 C         139.3734  144.6780  162.1017 C.ar    1  UNL1        0.1703
      5 N         139.5339  145.4131  160.8040 N.ar    1  UNL1       -0.1285
      6 N         140.9193  145.1520  160.2917 N.ar    1  UNL1       -0.1243
      7 C         141.6150  144.2556  161.2729 C.ar    1  UNL1        0.2424
      8 N         140.6596  143.9627  162.3915 N.ar    1  UNL1       -0.2692
      9 C         140.7946  143.1371  163.6365 C.ar    1  UNL1        0.0828
     10 C         140.0483  140.5498  168.3268 C.ar    1  UNL1        0.1468
     11 C         140.5525  141.9623  168.3054 C.ar    1  UNL1        0.0372
     12 C         140.4175  142.7880  167.0603 C.ar    1  UNL1        0.0032
     13 C         139.7783  142.2011  165.8368 C.ar    1  UNL1        0.0016
     14 C         139.2742  140.7885  165.8583 C.ar    1  UNL1        0.0032
     15 C         139.4092  139.9629  167.1033 C.ar    1  UNL1        0.0372
     16 O         140.1833  139.7241  169.5718 O.3     1  UNL1       -0.4045
     17 F         142.7304  139.8027  171.1549 F       1  UNL1       -0.1328
     18 C         141.4568  139.7634  170.3634 C.3     1  UNL1        0.5753
     19 F         142.1584  139.0104  169.2721 F       1  UNL1       -0.1328
     20 F         140.7553  140.5164  171.4546 F       1  UNL1       -0.1328
     21 C         143.0196  143.7423  161.1559 C.3     1  UNL1        0.4528
     22 F         144.4242  143.2290  161.0390 F       1  UNL1       -0.1631
     23 F         143.4384  144.6296  162.2905 F       1  UNL1       -0.1631
     24 F         142.6008  142.8550  160.0213 F       1  UNL1       -0.1631
@<TRIPOS>BOND
     1    17    18    1
     2    18    19    1
     3    18    20    1
     4    18    16    1
     5    16    10    1
     6    10    11   ar
     7    11    12   ar
     8    12    13   ar
     9    13     1    1
    10     1     2   ar
    11     2     3   ar
    12     3     4   ar
    13     4     5   ar
    14     5     6   ar
    15     6     7   ar
    16     7    21    1
    17    21    22    1
    18    21    23    1
    19    21    24    1
    20     7     8   ar
    21     8     9   ar
    22    13    14   ar
    23    14    15   ar
    24    15    10   ar
    25     9     1   ar
    26     8     4   ar
@<TRIPOS>MOLECULE
*****
 24 26 0 0 0
SMALL
GASTEIGER

@<TRIPOS>ATOM
      1 C         138.7626  140.8849  163.8060 C.ar    1  UNL1        0.0177
      2 C         138.1647  139.8749  162.8720 C.ar    1  UNL1        0.0047
      3 C         138.0057  140.2011  161.4166 C.ar    1  UNL1        0.0393
      4 C         138.4447  141.5373  160.8952 C.ar    1  UNL1        0.1703
      5 N         138.4137  142.1380  159.5210 N.ar    1  UNL1       -0.1285
      6 N         138.9924  143.5193  159.6058 N.ar    1  UNL1       -0.1243
      7 C         139.3811  143.7722  161.0323 C.ar    1  UNL1        0.2424
      8 N         139.0426  142.5473  161.8292 N.ar    1  UNL1       -0.2692
      9 C         139.2016  142.2211  163.2846 C.ar    1  UNL1        0.0828
     10 C         139.2396  139.9063  168.1724 C.ar    1  UNL1        0.1468
     11 C         138.2651  139.1344  167.3329 C.ar    1  UNL1        0.0372
     12 C         138.1062  139.4606  165.8774 C.ar    1  UNL1        0.0032
     13 C         138.9216  140.5586  165.2615 C.ar    1  UNL1        0.0016
     14 C         139.8960  141.3305  166.1010 C.ar    1  UNL1        0.0032
     15 C         140.0550  141.0044  167.5564 C.ar    1  UNL1        0.0372
     16 O         139.3986  139.5801  169.6278 O.3     1  UNL1       -0.4045
     17 F         141.5492  140.9153  171.2380 F       1  UNL1       -0.1328
     18 C         140.4738  140.2477  170.4329 C.3     1  UNL1        0.5753
     19 F         141.3642  139.0577  170.2304 F       1  UNL1       -0.1328
     20 F         139.5834  141.4377  170.6354 F       1  UNL1       -0.1328
     21 C         139.9998  145.0293  161.5680 C.3     1  UNL1        0.4528
     22 F         140.6184  146.2865  162.1037 F       1  UNL1       -0.1631
     23 F         138.7343  145.3346  162.3132 F       1  UNL1       -0.1631
     24 F         141.2653  144.7241  160.8228 F       1  UNL1       -0.1631
@<TRIPOS>BOND
     1    17    18    1
     2    18    19    1
     3    18    20    1
     4    18    16    1
     5    16    10    1
     6    10    11   ar
     7    11    12   ar
     8    12    13   ar
     9    13     1    1
    10     1     2   ar
    11     2     3   ar
    12     3     4   ar
    13     4     5   ar
    14     5     6   ar
    15     6     7   ar
    16     7    21    1
    17    21    22    1
    18    21    23    1
    19    21    24    1
    20     7     8   ar
    21     8     9   ar
    22    13    14   ar
    23    14    15   ar
    24    15    10   ar
    25     9     1   ar
    26     8     4   ar
@<TRIPOS>MOLECULE
*****
 24 26 0 0 0
SMALL
GASTEIGER

@<TRIPOS>ATOM
      1 C         140.6431  141.8407  165.7854 C.ar    1  UNL1        0.0177
      2 C         139.6695  140.7014  165.7229 C.ar    1  UNL1        0.0047
      3 C         139.2969  139.9637  166.9747 C.ar    1  UNL1        0.0393
      4 C         139.8979  140.3654  168.2890 C.ar    1  UNL1        0.1703
      5 N         139.7224  139.8288  169.6787 N.ar    1  UNL1       -0.1285
      6 N         140.5876  140.6365  170.6001 N.ar    1  UNL1       -0.1243
      7 C         141.2978  141.6723  169.7798 C.ar    1  UNL1        0.2424
      8 N         140.8716  141.5047  168.3515 N.ar    1  UNL1       -0.2692
      9 C         141.2442  142.2423  167.0997 C.ar    1  UNL1        0.0828
     10 C         141.7612  144.0537  162.0300 C.ar    1  UNL1        0.1468
     11 C         140.6702  143.0248  161.9975 C.ar    1  UNL1        0.0372
     12 C         140.2976  142.2871  163.2494 C.ar    1  UNL1        0.0032
     13 C         141.0158  142.5784  164.5336 C.ar    1  UNL1        0.0016
     14 C         142.1067  143.6073  164.5660 C.ar    1  UNL1        0.0032
     15 C         142.4794  144.3450  163.3143 C.ar    1  UNL1        0.0372
     16 O         142.1339  144.7914  160.7783 O.3     1  UNL1       -0.4045
     17 F         140.0090  145.5790  158.8123 F       1  UNL1       -0.1328
     18 C         141.0714  145.1852  159.7954 C.3     1  UNL1        0.5753
     19 F         141.7088  144.3112  158.7563 F       1  UNL1       -0.1328
     20 F         140.4341  146.0592  160.8344 F       1  UNL1       -0.1328
     21 C         142.2646  142.6959  170.2971 C.3     1  UNL1        0.4528
     22 F         143.2314  143.7195  170.8144 F       1  UNL1       -0.1631
     23 F         143.2943  141.6233  170.4951 F       1  UNL1       -0.1631
     24 F         141.2348  143.7684  170.0992 F       1  UNL1       -0.1631
@<TRIPOS>BOND
     1    17    18    1
     2    18    19    1
     3    18    20    1
     4    18    16    1
     5    16    10    1
     6    10    11   ar
     7    11    12   ar
     8    12    13   ar
     9    13     1    1
    10     1     2   ar
    11     2     3   ar
    12     3     4   ar
    13     4     5   ar
    14     5     6   ar
    15     6     7   ar
    16     7    21    1
    17    21    22    1
    18    21    23    1
    19    21    24    1
    20     7     8   ar
    21     8     9   ar
    22    13    14   ar
    23    14    15   ar
    24    15    10   ar
    25     9     1   ar
    26     8     4   ar
@<TRIPOS>MOLECULE
*****
 24 26 0 0 0
SMALL
GASTEIGER

@<TRIPOS>ATOM
      1 C         139.2392  139.1555  163.4331 C.ar    1  UNL1        0.0177
      2 C         137.9609  139.2005  162.6496 C.ar    1  UNL1        0.0047
      3 C         137.9879  139.0271  161.1599 C.ar    1  UNL1        0.0393
      4 C         139.2932  138.8086  160.4538 C.ar    1  UNL1        0.1703
      5 N         139.6296  138.6073  159.0059 N.ar    1  UNL1       -0.1285
      6 N         141.1158  138.4378  158.8947 N.ar    1  UNL1       -0.1243
      7 C         141.6979  138.5344  160.2738 C.ar    1  UNL1        0.2424
      8 N         140.5714  138.7635  161.2374 N.ar    1  UNL1       -0.2692
      9 C         140.5444  138.9370  162.7270 C.ar    1  UNL1        0.0828
     10 C         139.1585  139.6758  167.9023 C.ar    1  UNL1        0.1468
     11 C         138.0501  138.9364  167.2132 C.ar    1  UNL1        0.0372
     12 C         138.0771  138.7629  165.7234 C.ar    1  UNL1        0.0032
     13 C         139.2123  139.3289  164.9229 C.ar    1  UNL1        0.0016
     14 C         140.3206  140.0683  165.6120 C.ar    1  UNL1        0.0032
     15 C         140.2937  140.2418  167.1017 C.ar    1  UNL1        0.0372
     16 O         139.1316  139.8493  169.3920 O.3     1  UNL1       -0.4045
     17 F         141.3207  141.3739  170.7643 F       1  UNL1       -0.1328
     18 C         140.2261  140.6115  170.0781 C.3     1  UNL1        0.5753
     19 F         139.4249  141.8735  169.9542 F       1  UNL1       -0.1328
     20 F         141.0273  139.3496  170.2020 F       1  UNL1       -0.1328
     21 C         143.1513  138.4216  160.6272 C.3     1  UNL1        0.4528
     22 F         144.6047  138.3089  160.9807 F       1  UNL1       -0.1631
     23 F         143.1884  139.8877  160.9422 F       1  UNL1       -0.1631
     24 F         143.1141  136.9555  160.3123 F       1  UNL1       -0.1631
@<TRIPOS>BOND
     1    17    18    1
     2    18    19    1
     3    18    20    1
     4    18    16    1
     5    16    10    1
     6    10    11   ar
     7    11    12   ar
     8    12    13   ar
     9    13     1    1
    10     1     2   ar
    11     2     3   ar
    12     3     4   ar
    13     4     5   ar
    14     5     6   ar
    15     6     7   ar
    16     7    21    1
    17    21    22    1
    18    21    23    1
    19    21    24    1
    20     7     8   ar
    21     8     9   ar
    22    13    14   ar
    23    14    15   ar
    24    15    10   ar
    25     9     1   ar
    26     8     4   ar
@<TRIPOS>MOLECULE
*****
 24 26 0 0 0
SMALL
GASTEIGER

@<TRIPOS>ATOM
      1 C         139.2858  140.5099  164.5547 C.ar    1  UNL1        0.0177
      2 C         137.9451  140.8556  163.9777 C.ar    1  UNL1        0.0047
      3 C         137.5986  140.4340  162.5806 C.ar    1  UNL1        0.0393
      4 C         138.5928  139.6667  161.7604 C.ar    1  UNL1        0.1703
      5 N         138.5341  139.1206  160.3644 N.ar    1  UNL1       -0.1285
      6 N         139.8386  138.4375  160.0788 N.ar    1  UNL1       -0.1243
      7 C         140.7034  138.5613  161.2981 C.ar    1  UNL1        0.2424
      8 N         139.9335  139.3209  162.3374 N.ar    1  UNL1       -0.2692
      9 C         140.2800  139.7426  163.7345 C.ar    1  UNL1        0.0828
     10 C         140.3254  141.7747  168.7464 C.ar    1  UNL1        0.1468
     11 C         140.5495  142.7173  167.6012 C.ar    1  UNL1        0.0372
     12 C         140.2030  142.2956  166.2040 C.ar    1  UNL1        0.0032
     13 C         139.6323  140.9315  165.9520 C.ar    1  UNL1        0.0016
     14 C         139.4082  139.9890  167.0971 C.ar    1  UNL1        0.0032
     15 C         139.7547  140.4106  168.4943 C.ar    1  UNL1        0.0372
     16 O         140.6719  142.1963  170.1436 O.3     1  UNL1       -0.4045
     17 F         143.3303  143.4651  170.7117 F       1  UNL1       -0.1328
     18 C         142.0011  142.8307  170.4276 C.3     1  UNL1        0.5753
     19 F         142.6014  141.4740  170.6486 F       1  UNL1       -0.1328
     20 F         141.4007  144.1874  170.2066 F       1  UNL1       -0.1328
     21 C         142.0941  138.0203  161.4513 C.3     1  UNL1        0.4528
     22 F         143.4848  137.4794  161.6044 F       1  UNL1       -0.1631
     23 F         142.5747  138.9522  160.3786 F       1  UNL1       -0.1631
     24 F         141.6135  137.0884  162.5239 F       1  UNL1       -0.1631
@<TRIPOS>BOND
     1    17    18    1
     2    18    19    1
     3    18    20    1
     4    18    16    1
     5    16    10    1
     6    10    11   ar
     7    11    12   ar
     8    12    13   ar
     9    13     1    1
    10     1     2   ar
    11     2     3   ar
    12     3     4   ar
    13     4     5   ar
    14     5     6   ar
    15     6     7   ar
    16     7    21    1
    17    21    22    1
    18    21    23    1
    19    21    24    1
    20     7     8   ar
    21     8     9   ar
    22    13    14   ar
    23    14    15   ar
    24    15    10   ar
    25     9     1   ar
    26     8     4   ar
