@<TRIPOS>MOLECULE
*****
 39 42 0 0 0
SMALL
GASTEIGER

@<TRIPOS>ATOM
      1 C         141.1407  143.9321  160.5765 C.ar    1  UNL1        0.1252
      2 N         141.0885  143.7877  159.0843 N.ar    1  UNL1       -0.2306
      3 C         142.4275  143.2973  158.6189 C.ar    1  UNL1        0.0983
      4 C         142.9592  142.9747  157.2539 C.ar    1  UNL1        0.0206
      5 C         144.3708  142.4935  157.0935 C.ar    1  UNL1        0.0016
      6 C         145.2506  142.3348  158.2979 C.ar    1  UNL1        0.0016
      7 C         144.7188  142.6573  159.6629 C.ar    1  UNL1        0.0188
      8 C         143.3073  143.1386  159.8234 C.ar    1  UNL1        0.0790
      9 N         142.5120  143.5309  161.0332 N.ar    1  UNL1       -0.3061
     10 C         140.0187  144.3962  161.4572 C.3     1  UNL1        0.0933
     11 C         137.7884  141.1452  161.9117 C.ar    1  UNL1        0.1386
     12 C         137.1884  141.3997  163.2627 C.ar    1  UNL1        0.0400
     13 C         137.5318  142.6530  164.0119 C.ar    1  UNL1        0.0397
     14 C         138.4753  143.6518  163.4101 C.ar    1  UNL1        0.1353
     15 C         139.0753  143.3974  162.0590 C.ar    1  UNL1        0.0223
     16 C         138.7319  142.1441  161.3098 C.ar    1  UNL1        0.0361
     17 C         137.7428  138.5516  161.7665 C.3     1  UNL1        0.2525
     18 O         137.4450  139.8919  161.1625 O.3     1  UNL1       -0.4714
     19 O         138.8187  144.9051  164.1592 O.3     1  UNL1       -0.4717
     20 C         138.5347  145.0021  165.6289 C.3     1  UNL1        0.2525
     21 C         143.0021  143.5234  162.4509 C.3     1  UNL1        0.1929
     22 C         142.3976  142.5803  163.4484 C.2     1  UNL1        0.2493
     23 O         142.6427  141.1052  163.3300 O.2     1  UNL1       -0.2727
     24 N         141.5481  143.1122  164.5643 N.am    1  UNL1       -0.2823
     25 H         141.3873  144.0804  164.6421 H       1  UNL1        0.1549
     26 C         140.9437  142.1691  165.5619 C.ar    1  UNL1        0.0497
     27 C         140.9122  142.5346  167.0163 C.ar    1  UNL1        0.0104
     28 C         140.3078  141.5914  168.0138 C.ar    1  UNL1       -0.0219
     29 C         139.7348  140.2827  167.5569 C.ar    1  UNL1       -0.0085
     30 C         139.7662  139.9171  166.1025 C.ar    1  UNL1       -0.0219
     31 C         140.3706  140.8603  165.1050 C.ar    1  UNL1        0.0104
     32 C         140.2764  141.9571  169.4683 C.3     1  UNL1        0.0190
     33 C         140.4628  143.4014  169.1092 C.3     1  UNL1        0.0044
     34 C         140.0899  140.5127  169.8273 C.3     1  UNL1        0.0044
     35 C         140.2450  142.3227  170.9227 C.3     1  UNL1        0.0044
     36 C         139.1932  138.6083  165.6456 C.3     1  UNL1        0.0190
     37 C         138.0387  138.7853  166.5867 C.3     1  UNL1        0.0044
     38 C         140.3477  138.4314  164.7045 C.3     1  UNL1        0.0044
     39 C         138.6202  137.2995  165.1887 C.3     1  UNL1        0.0044
@<TRIPOS>BOND
     1    17    18    1
     2    18    11    1
     3    11    12   ar
     4    12    13   ar
     5    13    14   ar
     6    14    19    1
     7    19    20    1
     8    14    15   ar
     9    15    10    1
    10    10     1    1
    11     1     2   ar
    12     2     3   ar
    13     3     4   ar
    14     4     5   ar
    15     5     6   ar
    16     6     7   ar
    17     7     8   ar
    18     8     9   ar
    19     9    21    1
    20    21    22    1
    21    22    23    2
    22    22    24   am
    23    24    26    1
    24    26    27   ar
    25    27    28   ar
    26    28    32    1
    27    32    33    1
    28    32    34    1
    29    32    35    1
    30    28    29   ar
    31    29    30   ar
    32    30    36    1
    33    36    37    1
    34    36    38    1
    35    36    39    1
    36    30    31   ar
    37    15    16   ar
    38    16    11   ar
    39     9     1   ar
    40    31    26   ar
    41     8     3   ar
    42    24    25    1
@<TRIPOS>MOLECULE
*****
 39 42 0 0 0
SMALL
GASTEIGER

@<TRIPOS>ATOM
      1 C         138.9620  138.9812  160.5452 C.ar    1  UNL1        0.1252
      2 N         138.6571  139.3144  159.1148 N.ar    1  UNL1       -0.2306
      3 C         139.8635  138.9722  158.2917 C.ar    1  UNL1        0.0983
      4 C         140.1412  139.0862  156.8221 C.ar    1  UNL1        0.0206
      5 C         141.4694  138.6555  156.2742 C.ar    1  UNL1        0.0016
      6 C         142.5200  138.1108  157.1959 C.ar    1  UNL1        0.0016
      7 C         142.2423  137.9967  158.6656 C.ar    1  UNL1        0.0188
      8 C         140.9141  138.4275  159.2135 C.ar    1  UNL1        0.0790
      9 N         140.3569  138.4330  160.6061 N.ar    1  UNL1       -0.3061
     10 C         138.0348  139.1641  161.7100 C.3     1  UNL1        0.0933
     11 C         138.1277  143.0204  162.6427 C.ar    1  UNL1        0.1386
     12 C         138.1932  142.9486  164.1395 C.ar    1  UNL1        0.0400
     13 C         138.2060  141.6152  164.8265 C.ar    1  UNL1        0.0397
     14 C         138.1532  140.3537  164.0167 C.ar    1  UNL1        0.1353
     15 C         138.0876  140.4255  162.5198 C.ar    1  UNL1        0.0223
     16 C         138.0749  141.7589  161.8328 C.ar    1  UNL1        0.0361
     17 C         139.0873  145.4191  162.3676 C.3     1  UNL1        0.2525
     18 O         138.1150  144.3538  161.9557 O.3     1  UNL1       -0.4714
     19 O         138.1659  139.0204  164.7037 O.3     1  UNL1       -0.4717
     20 C         138.1587  138.9485  166.2020 C.3     1  UNL1        0.2525
     21 C         141.0696  137.9715  161.8427 C.3     1  UNL1        0.1929
     22 C         141.7394  138.9701  162.7393 C.2     1  UNL1        0.2493
     23 O         143.0399  139.5940  162.3275 O.2     1  UNL1       -0.2727
     24 N         141.1088  139.3450  164.0476 N.am    1  UNL1       -0.2823
     25 H         140.2552  138.9356  164.3179 H       1  UNL1        0.1549
     26 C         141.7787  140.3437  164.9442 C.ar    1  UNL1        0.0497
     27 C         142.2596  141.6498  164.3849 C.ar    1  UNL1        0.0104
     28 C         142.9295  142.6485  165.2814 C.ar    1  UNL1       -0.0219
     29 C         143.1185  142.3411  166.7374 C.ar    1  UNL1       -0.0085
     30 C         142.6376  141.0351  167.2967 C.ar    1  UNL1       -0.0219
     31 C         141.9677  140.0364  166.4001 C.ar    1  UNL1        0.0104
     32 C         143.4104  143.9546  164.7220 C.3     1  UNL1        0.0190
     33 C         142.1222  144.1063  163.9687 C.3     1  UNL1        0.0044
     34 C         144.6986  143.8029  165.4753 C.3     1  UNL1        0.0044
     35 C         143.8913  145.2607  164.1626 C.3     1  UNL1        0.0044
     36 C         142.8266  140.7277  168.7527 C.3     1  UNL1        0.0190
     37 C         142.4989  139.2876  168.4912 C.3     1  UNL1        0.0044
     38 C         143.1544  142.1679  169.0141 C.3     1  UNL1        0.0044
     39 C         143.0157  140.4204  170.2087 C.3     1  UNL1        0.0044
@<TRIPOS>BOND
     1    17    18    1
     2    18    11    1
     3    11    12   ar
     4    12    13   ar
     5    13    14   ar
     6    14    19    1
     7    19    20    1
     8    14    15   ar
     9    15    10    1
    10    10     1    1
    11     1     2   ar
    12     2     3   ar
    13     3     4   ar
    14     4     5   ar
    15     5     6   ar
    16     6     7   ar
    17     7     8   ar
    18     8     9   ar
    19     9    21    1
    20    21    22    1
    21    22    23    2
    22    22    24   am
    23    24    26    1
    24    26    27   ar
    25    27    28   ar
    26    28    32    1
    27    32    33    1
    28    32    34    1
    29    32    35    1
    30    28    29   ar
    31    29    30   ar
    32    30    36    1
    33    36    37    1
    34    36    38    1
    35    36    39    1
    36    30    31   ar
    37    15    16   ar
    38    16    11   ar
    39     9     1   ar
    40    31    26   ar
    41     8     3   ar
    42    24    25    1
@<TRIPOS>MOLECULE
*****
 39 42 0 0 0
SMALL
GASTEIGER

@<TRIPOS>ATOM
      1 C         138.8395  138.9883  160.5532 C.ar    1  UNL1        0.1252
      2 N         138.4802  139.2952  159.1295 N.ar    1  UNL1       -0.2306
      3 C         139.6774  139.0001  158.2753 C.ar    1  UNL1        0.0983
      4 C         139.9086  139.1136  156.7977 C.ar    1  UNL1        0.0206
      5 C         141.2391  138.7379  156.2157 C.ar    1  UNL1        0.0016
      6 C         142.3383  138.2486  157.1115 C.ar    1  UNL1        0.0016
      7 C         142.1070  138.1350  158.5891 C.ar    1  UNL1        0.0188
      8 C         140.7766  138.5108  159.1711 C.ar    1  UNL1        0.0790
      9 N         140.2587  138.5035  160.5788 N.ar    1  UNL1       -0.3061
     10 C         137.9378  139.1397  161.7423 C.3     1  UNL1        0.0933
     11 C         138.0326  142.9535  162.8358 C.ar    1  UNL1        0.1386
     12 C         138.2106  142.8188  164.3191 C.ar    1  UNL1        0.0400
     13 C         138.2976  141.4577  164.9435 C.ar    1  UNL1        0.0397
     14 C         138.2067  140.2314  164.0846 C.ar    1  UNL1        0.1353
     15 C         138.0287  140.3661  162.6012 C.ar    1  UNL1        0.0223
     16 C         137.9417  141.7271  161.9768 C.ar    1  UNL1        0.0361
     17 C         138.9615  145.3635  162.5545 C.3     1  UNL1        0.2525
     18 O         137.9456  144.3146  162.2114 O.3     1  UNL1       -0.4714
     19 O         138.2937  138.8703  164.7090 O.3     1  UNL1       -0.4717
     20 C         138.2398  138.7247  166.2009 C.3     1  UNL1        0.2525
     21 C         141.0255  138.0849  161.7982 C.3     1  UNL1        0.1929
     22 C         141.6487  139.1218  162.6849 C.2     1  UNL1        0.2493
     23 O         142.6852  140.0555  162.1334 O.2     1  UNL1       -0.2727
     24 N         141.2355  139.2252  164.1232 N.am    1  UNL1       -0.2823
     25 H         140.5553  138.6124  164.4852 H       1  UNL1        0.1549
     26 C         141.8588  140.2621  165.0099 C.ar    1  UNL1        0.0497
     27 C         142.0257  139.9930  166.4760 C.ar    1  UNL1        0.0104
     28 C         142.6490  141.0300  167.3627 C.ar    1  UNL1       -0.0219
     29 C         143.1054  142.3361  166.7833 C.ar    1  UNL1       -0.0085
     30 C         142.9384  142.6052  165.3171 C.ar    1  UNL1       -0.0219
     31 C         142.3151  141.5683  164.4304 C.ar    1  UNL1        0.0104
     32 C         142.8159  140.7608  168.8290 C.3     1  UNL1        0.0190
     33 C         142.5392  139.3055  168.5933 C.3     1  UNL1        0.0044
     34 C         143.0927  142.2161  169.0646 C.3     1  UNL1        0.0044
     35 C         142.9828  140.4916  170.2952 C.3     1  UNL1        0.0044
     36 C         143.3948  143.9114  164.7377 C.3     1  UNL1        0.0190
     37 C         142.0643  144.0780  164.0655 C.3     1  UNL1        0.0044
     38 C         144.7253  143.7447  165.4099 C.3     1  UNL1        0.0044
     39 C         143.8512  145.2175  164.1583 C.3     1  UNL1        0.0044
@<TRIPOS>BOND
     1    17    18    1
     2    18    11    1
     3    11    12   ar
     4    12    13   ar
     5    13    14   ar
     6    14    19    1
     7    19    20    1
     8    14    15   ar
     9    15    10    1
    10    10     1    1
    11     1     2   ar
    12     2     3   ar
    13     3     4   ar
    14     4     5   ar
    15     5     6   ar
    16     6     7   ar
    17     7     8   ar
    18     8     9   ar
    19     9    21    1
    20    21    22    1
    21    22    23    2
    22    22    24   am
    23    24    26    1
    24    26    27   ar
    25    27    28   ar
    26    28    32    1
    27    32    33    1
    28    32    34    1
    29    32    35    1
    30    28    29   ar
    31    29    30   ar
    32    30    36    1
    33    36    37    1
    34    36    38    1
    35    36    39    1
    36    30    31   ar
    37    15    16   ar
    38    16    11   ar
    39     9     1   ar
    40    31    26   ar
    41     8     3   ar
    42    24    25    1
@<TRIPOS>MOLECULE
*****
 39 42 0 0 0
SMALL
GASTEIGER

@<TRIPOS>ATOM
      1 C         141.1110  143.9332  160.6477 C.ar    1  UNL1        0.1252
      2 N         141.0176  143.7854  159.1579 N.ar    1  UNL1       -0.2306
      3 C         142.3425  143.2915  158.6572 C.ar    1  UNL1        0.0983
      4 C         142.8362  142.9648  157.2789 C.ar    1  UNL1        0.0206
      5 C         144.2420  142.4807  157.0810 C.ar    1  UNL1        0.0016
      6 C         145.1542  142.3233  158.2613 C.ar    1  UNL1        0.0016
      7 C         144.6606  142.6500  159.6395 C.ar    1  UNL1        0.0188
      8 C         143.2547  143.1341  159.8375 C.ar    1  UNL1        0.0790
      9 N         142.4936  143.5307  161.0677 N.ar    1  UNL1       -0.3061
     10 C         140.0143  144.4013  161.5577 C.3     1  UNL1        0.0933
     11 C         137.7612  141.1685  162.0295 C.ar    1  UNL1        0.1386
     12 C         137.1861  141.4201  163.3918 C.ar    1  UNL1        0.0400
     13 C         137.5537  142.6654  164.1427 C.ar    1  UNL1        0.0397
     14 C         138.4964  143.6592  163.5314 C.ar    1  UNL1        0.1353
     15 C         139.0715  143.4076  162.1690 C.ar    1  UNL1        0.0223
     16 C         138.7039  142.1622  161.4180 C.ar    1  UNL1        0.0361
     17 C         137.9000  138.5900  161.7433 C.3     1  UNL1        0.2525
     18 O         137.3935  139.9231  161.2785 O.3     1  UNL1       -0.4714
     19 O         138.8640  144.9045  164.2824 O.3     1  UNL1       -0.4717
     20 C         138.5107  145.0368  165.7341 C.3     1  UNL1        0.2525
     21 C         143.0222  143.5256  162.4714 C.3     1  UNL1        0.1929
     22 C         142.4599  142.5696  163.4812 C.2     1  UNL1        0.2493
     23 O         142.7898  141.1088  163.3961 O.2     1  UNL1       -0.2727
     24 N         141.5676  143.0744  164.5763 N.am    1  UNL1       -0.2823
     25 H         141.3511  144.0331  164.6322 H       1  UNL1        0.1549
     26 C         141.0053  142.1183  165.5861 C.ar    1  UNL1        0.0497
     27 C         140.3827  140.8306  165.1344 C.ar    1  UNL1        0.0104
     28 C         139.8204  139.8746  166.1442 C.ar    1  UNL1       -0.0219
     29 C         139.8806  140.2062  167.6058 C.ar    1  UNL1       -0.0085
     30 C         140.5032  141.4939  168.0575 C.ar    1  UNL1       -0.0219
     31 C         141.0655  142.4500  167.0477 C.ar    1  UNL1        0.0104
     32 C         139.1977  138.5868  165.6923 C.3     1  UNL1        0.0190
     33 C         140.3724  138.3339  164.7944 C.3     1  UNL1        0.0044
     34 C         138.0231  138.8397  166.5903 C.3     1  UNL1        0.0044
     35 C         138.5751  137.2990  165.2405 C.3     1  UNL1        0.0044
     36 C         140.5635  141.8256  169.5192 C.3     1  UNL1        0.0190
     37 C         139.3980  140.9164  169.7736 C.3     1  UNL1        0.0044
     38 C         141.7290  142.7349  169.2648 C.3     1  UNL1        0.0044
     39 C         140.6238  142.1573  170.9808 C.3     1  UNL1        0.0044
@<TRIPOS>BOND
     1    17    18    1
     2    18    11    1
     3    11    12   ar
     4    12    13   ar
     5    13    14   ar
     6    14    19    1
     7    19    20    1
     8    14    15   ar
     9    15    10    1
    10    10     1    1
    11     1     2   ar
    12     2     3   ar
    13     3     4   ar
    14     4     5   ar
    15     5     6   ar
    16     6     7   ar
    17     7     8   ar
    18     8     9   ar
    19     9    21    1
    20    21    22    1
    21    22    23    2
    22    22    24   am
    23    24    26    1
    24    26    27   ar
    25    27    28   ar
    26    28    32    1
    27    32    33    1
    28    32    34    1
    29    32    35    1
    30    28    29   ar
    31    29    30   ar
    32    30    36    1
    33    36    37    1
    34    36    38    1
    35    36    39    1
    36    30    31   ar
    37    15    16   ar
    38    16    11   ar
    39     9     1   ar
    40    31    26   ar
    41     8     3   ar
    42    24    25    1
@<TRIPOS>MOLECULE
*****
 39 42 0 0 0
SMALL
GASTEIGER

@<TRIPOS>ATOM
      1 C         143.5652  138.9051  160.6394 C.ar    1  UNL1        0.1252
      2 N         143.2922  138.4744  159.2288 N.ar    1  UNL1       -0.2306
      3 C         143.5588  139.6433  158.3273 C.ar    1  UNL1        0.0983
      4 C         143.4595  139.8066  156.8396 C.ar    1  UNL1        0.0206
      5 C         143.7980  141.1231  156.2054 C.ar    1  UNL1        0.0016
      6 C         144.2357  142.2763  157.0590 C.ar    1  UNL1        0.0016
      7 C         144.3350  142.1130  158.5467 C.ar    1  UNL1        0.0188
      8 C         143.9966  140.7965  159.1809 C.ar    1  UNL1        0.0790
      9 N         144.0005  140.3402  160.6098 N.ar    1  UNL1       -0.3061
     10 C         143.4271  138.0507  161.8645 C.3     1  UNL1        0.0933
     11 C         139.5800  137.9613  162.8350 C.ar    1  UNL1        0.1386
     12 C         139.6539  138.2182  164.3110 C.ar    1  UNL1        0.0400
     13 C         140.9856  138.4192  164.9715 C.ar    1  UNL1        0.0397
     14 C         142.2433  138.3634  164.1560 C.ar    1  UNL1        0.1353
     15 C         142.1694  138.1065  162.6800 C.ar    1  UNL1        0.0223
     16 C         140.8377  137.9054  162.0195 C.ar    1  UNL1        0.0361
     17 C         137.5657  138.9113  161.4971 C.3     1  UNL1        0.2525
     18 O         138.2483  137.7602  162.1745 O.3     1  UNL1       -0.4714
     19 O         143.5749  138.5645  164.8165 O.3     1  UNL1       -0.4717
     20 C         143.7365  138.2805  166.2805 C.3     1  UNL1        0.2525
     21 C         144.3742  141.1729  161.8002 C.3     1  UNL1        0.1929
     22 C         143.3104  141.6588  162.7394 C.2     1  UNL1        0.2493
     23 O         142.0630  142.2913  162.1971 O.2     1  UNL1       -0.2727
     24 N         143.4939  141.5122  164.2209 N.am    1  UNL1       -0.2823
     25 H         144.3125  141.0971  164.5768 H       1  UNL1        0.1549
     26 C         142.4300  141.9981  165.1601 C.ar    1  UNL1        0.0497
     27 C         141.0865  142.4003  164.6280 C.ar    1  UNL1        0.0104
     28 C         140.0226  142.8862  165.5672 C.ar    1  UNL1       -0.0219
     29 C         140.3022  142.9700  167.0385 C.ar    1  UNL1       -0.0085
     30 C         141.6458  142.5678  167.5706 C.ar    1  UNL1       -0.0219
     31 C         142.7096  142.0819  166.6314 C.ar    1  UNL1        0.0104
     32 C         138.6790  143.2885  165.0350 C.3     1  UNL1        0.0190
     33 C         138.3944  141.8605  164.6745 C.3     1  UNL1        0.0044
     34 C         138.9637  144.7163  165.3956 C.3     1  UNL1        0.0044
     35 C         137.3355  143.6906  164.5029 C.3     1  UNL1        0.0044
     36 C         141.9254  142.6515  169.0419 C.3     1  UNL1        0.0190
     37 C         140.5318  143.1531  169.2783 C.3     1  UNL1        0.0044
     38 C         143.3192  142.1499  168.8056 C.3     1  UNL1        0.0044
     39 C         142.2052  142.7352  170.5133 C.3     1  UNL1        0.0044
@<TRIPOS>BOND
     1    17    18    1
     2    18    11    1
     3    11    12   ar
     4    12    13   ar
     5    13    14   ar
     6    14    19    1
     7    19    20    1
     8    14    15   ar
     9    15    10    1
    10    10     1    1
    11     1     2   ar
    12     2     3   ar
    13     3     4   ar
    14     4     5   ar
    15     5     6   ar
    16     6     7   ar
    17     7     8   ar
    18     8     9   ar
    19     9    21    1
    20    21    22    1
    21    22    23    2
    22    22    24   am
    23    24    26    1
    24    26    27   ar
    25    27    28   ar
    26    28    32    1
    27    32    33    1
    28    32    34    1
    29    32    35    1
    30    28    29   ar
    31    29    30   ar
    32    30    36    1
    33    36    37    1
    34    36    38    1
    35    36    39    1
    36    30    31   ar
    37    15    16   ar
    38    16    11   ar
    39     9     1   ar
    40    31    26   ar
    41     8     3   ar
    42    24    25    1
@<TRIPOS>MOLECULE
*****
 39 42 0 0 0
SMALL
GASTEIGER

@<TRIPOS>ATOM
      1 C         143.7835  141.2344  158.9875 C.ar    1  UNL1        0.1252
      2 N         143.2938  141.3729  157.5764 N.ar    1  UNL1       -0.2306
      3 C         142.7041  140.0583  157.1592 C.ar    1  UNL1        0.0983
      4 C         142.0693  139.6043  155.8783 C.ar    1  UNL1        0.0206
      5 C         141.5596  138.1994  155.7505 C.ar    1  UNL1        0.0016
      6 C         141.6848  137.2484  156.9038 C.ar    1  UNL1        0.0016
      7 C         142.3196  137.7023  158.1847 C.ar    1  UNL1        0.0188
      8 C         142.8292  139.1073  158.3125 C.ar    1  UNL1        0.0790
      9 N         143.4963  139.8341  159.4423 N.ar    1  UNL1       -0.3061
     10 C         144.4442  142.3076  159.8008 C.3     1  UNL1        0.0933
     11 C         141.6017  144.6099  161.3402 C.ar    1  UNL1        0.1386
     12 C         142.0392  144.6804  162.7732 C.ar    1  UNL1        0.0400
     13 C         143.2784  143.9601  163.2155 C.ar    1  UNL1        0.0397
     14 C         144.0800  143.1692  162.2247 C.ar    1  UNL1        0.1353
     15 C         143.6426  143.0985  160.7916 C.ar    1  UNL1        0.0223
     16 C         142.4034  143.8189  160.3494 C.ar    1  UNL1        0.0361
     17 C         139.6937  146.3070  161.8192 C.3     1  UNL1        0.2525
     18 O         140.3626  145.3302  160.8980 O.3     1  UNL1       -0.4714
     19 O         145.3192  142.4488  162.6669 O.3     1  UNL1       -0.4717
     20 C         145.3894  141.8513  164.0410 C.3     1  UNL1        0.2525
     21 C         143.8195  139.2613  160.7905 C.3     1  UNL1        0.1929
     22 C         142.9020  139.5100  161.9506 C.2     1  UNL1        0.2493
     23 O         143.3418  139.1640  163.3424 O.2     1  UNL1       -0.2727
     24 N         141.5444  140.1047  161.7193 N.am    1  UNL1       -0.2823
     25 H         141.2557  140.3318  160.8059 H       1  UNL1        0.1549
     26 C         140.6269  140.3533  162.8796 C.ar    1  UNL1        0.0497
     27 C         140.2919  141.7586  163.2831 C.ar    1  UNL1        0.0104
     28 C         139.3744  142.0073  164.4434 C.ar    1  UNL1       -0.0219
     29 C         138.7917  140.8506  165.2002 C.ar    1  UNL1       -0.0085
     30 C         139.1267  139.4453  164.7966 C.ar    1  UNL1       -0.0219
     31 C         140.0443  139.1967  163.6363 C.ar    1  UNL1        0.0104
     32 C         139.0394  143.4127  164.8470 C.3     1  UNL1        0.0190
     33 C         140.0366  143.3295  165.9644 C.3     1  UNL1        0.0044
     34 C         138.0423  143.4958  163.7295 C.3     1  UNL1        0.0044
     35 C         138.7045  144.8180  165.2505 C.3     1  UNL1        0.0044
     36 C         138.5441  138.2887  165.5534 C.3     1  UNL1        0.0190
     37 C         139.0266  137.3489  164.4885 C.3     1  UNL1        0.0044
     38 C         138.0616  139.2284  166.6183 C.3     1  UNL1        0.0044
     39 C         137.9614  137.1320  166.3102 C.3     1  UNL1        0.0044
@<TRIPOS>BOND
     1    17    18    1
     2    18    11    1
     3    11    12   ar
     4    12    13   ar
     5    13    14   ar
     6    14    19    1
     7    19    20    1
     8    14    15   ar
     9    15    10    1
    10    10     1    1
    11     1     2   ar
    12     2     3   ar
    13     3     4   ar
    14     4     5   ar
    15     5     6   ar
    16     6     7   ar
    17     7     8   ar
    18     8     9   ar
    19     9    21    1
    20    21    22    1
    21    22    23    2
    22    22    24   am
    23    24    26    1
    24    26    27   ar
    25    27    28   ar
    26    28    32    1
    27    32    33    1
    28    32    34    1
    29    32    35    1
    30    28    29   ar
    31    29    30   ar
    32    30    36    1
    33    36    37    1
    34    36    38    1
    35    36    39    1
    36    30    31   ar
    37    15    16   ar
    38    16    11   ar
    39     9     1   ar
    40    31    26   ar
    41     8     3   ar
    42    24    25    1
@<TRIPOS>MOLECULE
*****
 39 42 0 0 0
SMALL
GASTEIGER

@<TRIPOS>ATOM
      1 C         143.6594  138.9659  160.5566 C.ar    1  UNL1        0.1252
      2 N         143.4067  138.5719  159.1315 N.ar    1  UNL1       -0.2306
      3 C         143.6575  139.7720  158.2673 C.ar    1  UNL1        0.0983
      4 C         143.5673  139.9774  156.7842 C.ar    1  UNL1        0.0206
      5 C         143.8848  141.3185  156.1921 C.ar    1  UNL1        0.0016
      6 C         144.2925  142.4542  157.0831 C.ar    1  UNL1        0.0016
      7 C         144.3827  142.2489  158.5662 C.ar    1  UNL1        0.0188
      8 C         144.0652  140.9078  159.1583 C.ar    1  UNL1        0.0790
      9 N         144.0663  140.4095  160.5731 N.ar    1  UNL1       -0.3061
     10 C         143.5281  138.0730  161.7547 C.3     1  UNL1        0.0933
     11 C         139.6763  137.9090  162.6962 C.ar    1  UNL1        0.1386
     12 C         139.7389  138.1067  164.1818 C.ar    1  UNL1        0.0400
     13 C         141.0646  138.2932  164.8583 C.ar    1  UNL1        0.0397
     14 C         142.3276  138.2820  164.0493 C.ar    1  UNL1        0.1353
     15 C         142.2651  138.0842  162.5637 C.ar    1  UNL1        0.0223
     16 C         140.9394  137.8978  161.8871 C.ar    1  UNL1        0.0361
     17 C         137.5658  138.9174  161.5652 C.3     1  UNL1        0.2525
     18 O         138.3506  137.7226  162.0196 O.3     1  UNL1       -0.4714
     19 O         143.6533  138.4684  164.7259 O.3     1  UNL1       -0.4717
     20 C         143.7493  138.3946  166.2210 C.3     1  UNL1        0.2525
     21 C         144.4135  141.2138  161.7908 C.3     1  UNL1        0.1929
     22 C         143.3300  141.6713  162.7215 C.2     1  UNL1        0.2493
     23 O         142.0613  142.2502  162.1686 O.2     1  UNL1       -0.2727
     24 N         143.5148  141.5501  164.2051 N.am    1  UNL1       -0.2823
     25 H         144.3474  141.1702  164.5680 H       1  UNL1        0.1549
     26 C         142.4311  142.0078  165.1358 C.ar    1  UNL1        0.0497
     27 C         142.6706  142.0221  166.6165 C.ar    1  UNL1        0.0104
     28 C         141.5869  142.4797  167.5472 C.ar    1  UNL1       -0.0219
     29 C         140.2637  142.9231  166.9972 C.ar    1  UNL1       -0.0085
     30 C         140.0242  142.9088  165.5166 C.ar    1  UNL1       -0.0219
     31 C         141.1079  142.4512  164.5859 C.ar    1  UNL1        0.0104
     32 C         141.8265  142.4939  169.0279 C.3     1  UNL1        0.0190
     33 C         143.0878  141.7062  168.8314 C.3     1  UNL1        0.0044
     34 C         140.5652  143.2817  169.2243 C.3     1  UNL1        0.0044
     35 C         142.0661  142.5082  170.5086 C.3     1  UNL1        0.0044
     36 C         138.7010  143.3522  164.9666 C.3     1  UNL1        0.0190
     37 C         138.9855  144.7555  165.4132 C.3     1  UNL1        0.0044
     38 C         138.4164  141.9488  164.5199 C.3     1  UNL1        0.0044
     39 C         137.3777  143.7955  164.4166 C.3     1  UNL1        0.0044
@<TRIPOS>BOND
     1    17    18    1
     2    18    11    1
     3    11    12   ar
     4    12    13   ar
     5    13    14   ar
     6    14    19    1
     7    19    20    1
     8    14    15   ar
     9    15    10    1
    10    10     1    1
    11     1     2   ar
    12     2     3   ar
    13     3     4   ar
    14     4     5   ar
    15     5     6   ar
    16     6     7   ar
    17     7     8   ar
    18     8     9   ar
    19     9    21    1
    20    21    22    1
    21    22    23    2
    22    22    24   am
    23    24    26    1
    24    26    27   ar
    25    27    28   ar
    26    28    32    1
    27    32    33    1
    28    32    34    1
    29    32    35    1
    30    28    29   ar
    31    29    30   ar
    32    30    36    1
    33    36    37    1
    34    36    38    1
    35    36    39    1
    36    30    31   ar
    37    15    16   ar
    38    16    11   ar
    39     9     1   ar
    40    31    26   ar
    41     8     3   ar
    42    24    25    1
@<TRIPOS>MOLECULE
*****
 39 42 0 0 0
SMALL
GASTEIGER

@<TRIPOS>ATOM
      1 C         143.8622  141.3470  159.2883 C.ar    1  UNL1        0.1252
      2 N         143.4344  141.5219  157.8613 N.ar    1  UNL1       -0.2306
      3 C         142.8788  140.2143  157.3803 C.ar    1  UNL1        0.0983
      4 C         142.3069  139.7918  156.0596 C.ar    1  UNL1        0.0206
      5 C         141.8194  138.3861  155.8687 C.ar    1  UNL1        0.0016
      6 C         141.9038  137.4030  156.9984 C.ar    1  UNL1        0.0016
      7 C         142.4757  137.8255  158.3191 C.ar    1  UNL1        0.0188
      8 C         142.9632  139.2312  158.5101 C.ar    1  UNL1        0.0790
      9 N         143.5710  139.9312  159.6893 N.ar    1  UNL1       -0.3061
     10 C         144.4739  142.4025  160.1611 C.3     1  UNL1        0.0933
     11 C         141.4493  144.5547  161.5648 C.ar    1  UNL1        0.1386
     12 C         141.8860  144.7653  162.9843 C.ar    1  UNL1        0.0400
     13 C         143.1854  144.1884  163.4627 C.ar    1  UNL1        0.0397
     14 C         144.0480  143.4008  162.5217 C.ar    1  UNL1        0.1353
     15 C         143.6113  143.1901  161.1022 C.ar    1  UNL1        0.0223
     16 C         142.3119  143.7671  160.6237 C.ar    1  UNL1        0.0361
     17 C         139.6023  146.3750  161.7219 C.3     1  UNL1        0.2525
     18 O         140.1500  145.1316  161.0864 O.3     1  UNL1       -0.4714
     19 O         145.3473  142.8239  163.0001 O.3     1  UNL1       -0.4717
     20 C         145.3653  141.8830  164.1682 C.3     1  UNL1        0.2525
     21 C         143.8403  139.3224  161.0335 C.3     1  UNL1        0.1929
     22 C         142.9126  139.5955  162.1800 C.2     1  UNL1        0.2493
     23 O         143.3923  139.4220  163.5907 O.2     1  UNL1       -0.2727
     24 N         141.5052  140.0422  161.9161 N.am    1  UNL1       -0.2823
     25 H         141.1903  140.1561  160.9903 H       1  UNL1        0.1549
     26 C         140.5776  140.3153  163.0628 C.ar    1  UNL1        0.0497
     27 C         139.9765  139.1747  163.8293 C.ar    1  UNL1        0.0104
     28 C         139.0488  139.4479  164.9760 C.ar    1  UNL1       -0.0219
     29 C         138.7222  140.8617  165.3562 C.ar    1  UNL1       -0.0085
     30 C         139.3233  142.0023  164.5896 C.ar    1  UNL1       -0.0219
     31 C         140.2510  141.7291  163.4430 C.ar    1  UNL1        0.0104
     32 C         138.4477  138.3071  165.7426 C.3     1  UNL1        0.0190
     33 C         138.8384  137.3632  164.6443 C.3     1  UNL1        0.0044
     34 C         138.0570  139.2511  166.8408 C.3     1  UNL1        0.0044
     35 C         137.8466  137.1664  166.5091 C.3     1  UNL1        0.0044
     36 C         138.9968  143.4161  164.9698 C.3     1  UNL1        0.0190
     37 C         140.0212  143.3586  166.0638 C.3     1  UNL1        0.0044
     38 C         137.9722  143.4736  163.8757 C.3     1  UNL1        0.0044
     39 C         138.6701  144.8299  165.3499 C.3     1  UNL1        0.0044
@<TRIPOS>BOND
     1    17    18    1
     2    18    11    1
     3    11    12   ar
     4    12    13   ar
     5    13    14   ar
     6    14    19    1
     7    19    20    1
     8    14    15   ar
     9    15    10    1
    10    10     1    1
    11     1     2   ar
    12     2     3   ar
    13     3     4   ar
    14     4     5   ar
    15     5     6   ar
    16     6     7   ar
    17     7     8   ar
    18     8     9   ar
    19     9    21    1
    20    21    22    1
    21    22    23    2
    22    22    24   am
    23    24    26    1
    24    26    27   ar
    25    27    28   ar
    26    28    32    1
    27    32    33    1
    28    32    34    1
    29    32    35    1
    30    28    29   ar
    31    29    30   ar
    32    30    36    1
    33    36    37    1
    34    36    38    1
    35    36    39    1
    36    30    31   ar
    37    15    16   ar
    38    16    11   ar
    39     9     1   ar
    40    31    26   ar
    41     8     3   ar
    42    24    25    1
@<TRIPOS>MOLECULE
*****
 39 42 0 0 0
SMALL
GASTEIGER

@<TRIPOS>ATOM
      1 C         139.5069  139.5528  166.5722 C.ar    1  UNL1        0.1252
      2 N         138.9510  139.9135  167.9179 N.ar    1  UNL1       -0.2306
      3 C         140.1042  140.1499  168.8476 C.ar    1  UNL1        0.0983
      4 C         140.1630  140.5328  170.2967 C.ar    1  UNL1        0.0206
      5 C         141.4904  140.7012  170.9746 C.ar    1  UNL1        0.0016
      6 C         142.7590  140.4866  170.2035 C.ar    1  UNL1        0.0016
      7 C         142.7002  140.1037  168.7544 C.ar    1  UNL1        0.0188
      8 C         141.3728  139.9353  168.0765 C.ar    1  UNL1        0.0790
      9 N         141.0036  139.5663  166.6702 N.ar    1  UNL1       -0.3061
     10 C         138.7066  139.2345  165.3441 C.3     1  UNL1        0.0933
     11 C         138.0042  142.8383  163.8377 C.ar    1  UNL1        0.1386
     12 C         137.6935  142.4937  162.4113 C.ar    1  UNL1        0.0400
     13 C         137.7204  141.0626  161.9625 C.ar    1  UNL1        0.0397
     14 C         138.0581  139.9763  162.9401 C.ar    1  UNL1        0.1353
     15 C         138.3689  140.3209  164.3666 C.ar    1  UNL1        0.0223
     16 C         138.3420  141.7519  164.8154 C.ar    1  UNL1        0.0361
     17 C         138.8178  144.7066  165.4494 C.3     1  UNL1        0.2525
     18 O         137.9773  144.2694  164.2865 O.3     1  UNL1       -0.4714
     19 O         138.0850  138.5452  162.4913 O.3     1  UNL1       -0.4717
     20 C         139.0109  138.1219  161.3898 C.3     1  UNL1        0.2525
     21 C         141.9628  139.2639  165.5574 C.3     1  UNL1        0.1929
     22 C         142.1628  140.2549  164.4494 C.2     1  UNL1        0.2493
     23 O         142.8267  141.5704  164.7305 O.2     1  UNL1       -0.2727
     24 N         141.6989  139.9308  163.0603 N.am    1  UNL1       -0.2823
     25 H         141.2632  139.0674  162.8757 H       1  UNL1        0.1549
     26 C         141.8989  140.9219  161.9523 C.ar    1  UNL1        0.0497
     27 C         142.7876  140.5817  160.7929 C.ar    1  UNL1        0.0104
     28 C         142.9876  141.5728  159.6849 C.ar    1  UNL1       -0.0219
     29 C         142.2989  142.9044  159.7364 C.ar    1  UNL1       -0.0085
     30 C         141.4102  143.2446  160.8958 C.ar    1  UNL1       -0.0219
     31 C         141.2102  142.2535  162.0038 C.ar    1  UNL1        0.0104
     32 C         143.8764  141.2324  158.5254 C.3     1  UNL1        0.0190
     33 C         143.1987  139.9005  158.3970 C.3     1  UNL1        0.0044
     34 C         144.5541  142.5644  158.6540 C.3     1  UNL1        0.0044
     35 C         144.7651  140.8921  157.3660 C.3     1  UNL1        0.0044
     36 C         140.7214  144.5762  160.9473 C.3     1  UNL1        0.0190
     37 C         141.0872  144.7094  162.3958 C.3     1  UNL1        0.0044
     38 C         140.3556  144.4430  159.4987 C.3     1  UNL1        0.0044
     39 C         140.0326  145.9077  160.9987 C.3     1  UNL1        0.0044
@<TRIPOS>BOND
     1    17    18    1
     2    18    11    1
     3    11    12   ar
     4    12    13   ar
     5    13    14   ar
     6    14    19    1
     7    19    20    1
     8    14    15   ar
     9    15    10    1
    10    10     1    1
    11     1     2   ar
    12     2     3   ar
    13     3     4   ar
    14     4     5   ar
    15     5     6   ar
    16     6     7   ar
    17     7     8   ar
    18     8     9   ar
    19     9    21    1
    20    21    22    1
    21    22    23    2
    22    22    24   am
    23    24    26    1
    24    26    27   ar
    25    27    28   ar
    26    28    32    1
    27    32    33    1
    28    32    34    1
    29    32    35    1
    30    28    29   ar
    31    29    30   ar
    32    30    36    1
    33    36    37    1
    34    36    38    1
    35    36    39    1
    36    30    31   ar
    37    15    16   ar
    38    16    11   ar
    39     9     1   ar
    40    31    26   ar
    41     8     3   ar
    42    24    25    1
