@<TRIPOS>MOLECULE
*****
 41 46 0 0 0
SMALL
GASTEIGER

@<TRIPOS>ATOM
      1 C         142.2174  137.9597  159.2509 C.2     1  UNL1        0.2495
      2 O         143.2210  136.9360  159.6923 O.2     1  UNL1       -0.2698
      3 N         141.6386  138.9207  160.2466 N.am    1  UNL1       -0.2804
      4 H         140.9799  139.5925  159.9568 H       1  UNL1        0.1552
      5 C         140.5185  138.2107  153.5019 C.3     1  UNL1        0.0317
      6 C         140.9433  138.1480  154.9391 C.ar    1  UNL1       -0.0142
      7 C         142.2687  137.5479  155.3040 C.ar    1  UNL1       -0.0035
      8 C         142.6934  137.4851  156.7412 C.ar    1  UNL1        0.0042
      9 C         141.7927  138.0225  157.8136 C.ar    1  UNL1        0.0543
     10 C         140.4673  138.6226  157.4488 C.ar    1  UNL1        0.0124
     11 C         140.0426  138.6853  156.0115 C.ar    1  UNL1        0.0382
     12 C         138.7171  139.2854  155.6466 C.1     1  UNL1       -0.0585
     13 C         137.3917  139.8856  155.2817 C.1     1  UNL1       -0.0388
     14 C         136.0663  140.4857  154.9168 C.ar    1  UNL1        0.1451
     15 C         135.7899  141.3548  153.7259 C.ar    1  UNL1        0.1281
     16 N         134.3373  141.7283  153.7519 N.ar    1  UNL1       -0.2228
     17 C         133.7160  141.0900  154.9588 C.ar    1  UNL1        0.1646
     18 C         132.3154  141.1089  155.4952 C.ar    1  UNL1        0.0405
     19 C         131.9833  140.3598  156.7516 C.ar    1  UNL1        0.0256
     20 C         133.0519  139.5918  157.4716 C.ar    1  UNL1        0.1207
     21 N         134.4526  139.5729  156.9351 N.ar    1  UNL1       -0.1616
     22 N         134.7846  140.3220  155.6788 N.ar    1  UNL1       -0.2030
     23 C         142.0633  138.8579  161.6839 C.ar    1  UNL1        0.0514
     24 C         141.2001  138.1577  162.6911 C.ar    1  UNL1        0.0145
     25 C         141.6248  138.0950  164.1284 C.ar    1  UNL1       -0.0008
     26 C         142.9127  138.7325  164.5584 C.ar    1  UNL1        0.0046
     27 C         143.7759  139.4327  163.5510 C.ar    1  UNL1        0.0562
     28 CL        145.0639  140.0702  163.9810 Cl      1  UNL1       -0.0825
     29 C         143.3512  139.4954  162.1138 C.ar    1  UNL1        0.0258
     30 C         143.3375  138.6698  165.9956 C.3     1  UNL1        0.1005
     31 N         142.6956  139.5722  167.0074 N.3     1  UNL1       -0.2613
     32 C         142.0928  140.9178  166.7320 C.3     1  UNL1        0.0994
     33 C         141.5685  141.4647  168.0267 C.ar    1  UNL1       -0.0086
     34 C         140.8733  142.7500  168.3651 C.ar    1  UNL1       -0.0001
     35 C         140.4568  143.0276  169.7791 C.ar    1  UNL1        0.0363
     36 C         140.7357  142.0199  170.8547 C.ar    1  UNL1        0.1334
     37 O         140.3192  142.2976  172.2688 O.3     1  UNL1       -0.5055
     38 C         141.4310  140.7346  170.5162 C.ar    1  UNL1        0.0334
     39 C         141.8474  140.4570  169.1022 C.ar    1  UNL1       -0.0058
     40 C         142.5440  139.2874  168.4723 C.3     1  UNL1        0.0995
     41 H         139.8849  143.1005  172.4802 H       1  UNL1        0.2922
@<TRIPOS>BOND
     1     5     6    1
     2     6     7   ar
     3     7     8   ar
     4     8     9   ar
     5     9     1    1
     6     1     2    2
     7     1     3   am
     8     3    23    1
     9    23    24   ar
    10    24    25   ar
    11    25    26   ar
    12    26    30    1
    13    30    31    1
    14    31    32    1
    15    32    33    1
    16    33    34   ar
    17    34    35   ar
    18    35    36   ar
    19    36    37    1
    20    36    38   ar
    21    38    39   ar
    22    39    40    1
    23    26    27   ar
    24    27    28    1
    25    27    29   ar
    26     9    10   ar
    27    10    11   ar
    28    11    12    1
    29    12    13    3
    30    13    14    1
    31    14    15   ar
    32    15    16   ar
    33    16    17   ar
    34    17    18   ar
    35    18    19   ar
    36    19    20   ar
    37    20    21   ar
    38    21    22   ar
    39    11     6   ar
    40    22    14   ar
    41    29    23   ar
    42    22    17   ar
    43    40    31    1
    44    39    33   ar
    45     3     4    1
    46    37    41    1
@<TRIPOS>MOLECULE
*****
 41 46 0 0 0
SMALL
GASTEIGER

@<TRIPOS>ATOM
      1 C         141.4065  139.2905  159.7958 C.2     1  UNL1        0.2495
      2 O         142.2482  140.0796  160.7544 O.2     1  UNL1       -0.2698
      3 N         140.1718  138.5913  160.2819 N.am    1  UNL1       -0.2804
      4 H         139.6194  138.0734  159.6527 H       1  UNL1        0.1552
      5 C         142.9790  138.9314  154.0167 C.3     1  UNL1        0.0317
      6 C         142.5859  139.0212  155.4614 C.ar    1  UNL1       -0.0142
      7 C         142.4844  140.3605  156.1293 C.ar    1  UNL1       -0.0035
      8 C         142.0912  140.4503  157.5740 C.ar    1  UNL1        0.0042
      9 C         141.7996  139.2007  158.3510 C.ar    1  UNL1        0.0543
     10 C         141.9012  137.8614  157.6832 C.ar    1  UNL1        0.0124
     11 C         142.2943  137.7717  156.2384 C.ar    1  UNL1        0.0382
     12 C         142.3959  136.4324  155.5706 C.1     1  UNL1       -0.0585
     13 C         142.4975  135.0931  154.9028 C.1     1  UNL1       -0.0388
     14 C         142.5990  133.7538  154.2350 C.ar    1  UNL1        0.1451
     15 C         141.9069  133.3454  152.9683 C.ar    1  UNL1        0.1281
     16 N         142.2907  131.9269  152.6671 N.ar    1  UNL1       -0.2228
     17 C         143.2199  131.4587  153.7475 C.ar    1  UNL1        0.1646
     18 C         143.9172  130.1501  153.9741 C.ar    1  UNL1        0.0405
     19 C         144.8050  129.9706  155.1698 C.ar    1  UNL1        0.0256
     20 C         144.9955  131.0996  156.1387 C.ar    1  UNL1        0.1207
     21 N         144.2983  132.4082  155.9121 N.ar    1  UNL1       -0.1616
     22 N         143.4105  132.5877  154.7165 N.ar    1  UNL1       -0.2030
     23 C         139.7786  138.6810  161.7267 C.ar    1  UNL1        0.0514
     24 C         140.2192  137.6202  162.6912 C.ar    1  UNL1        0.0145
     25 C         139.8261  137.7099  164.1360 C.ar    1  UNL1       -0.0008
     26 C         138.9922  138.8606  164.6162 C.ar    1  UNL1        0.0046
     27 C         138.5515  139.9215  163.6516 C.ar    1  UNL1        0.0562
     28 CL        137.7177  141.0722  164.1319 Cl      1  UNL1       -0.0825
     29 C         138.9447  139.8317  162.2069 C.ar    1  UNL1        0.0258
     30 C         138.5990  138.9504  166.0610 C.3     1  UNL1        0.1005
     31 N         139.5064  139.6281  167.0445 N.3     1  UNL1       -0.2613
     32 C         140.9020  140.1061  166.7723 C.3     1  UNL1        0.0994
     33 C         141.4357  140.7202  168.0325 C.ar    1  UNL1       -0.0086
     34 C         142.7543  141.3563  168.3587 C.ar    1  UNL1       -0.0001
     35 C         143.0073  141.8940  169.7359 C.ar    1  UNL1        0.0363
     36 C         141.9416  141.7957  170.7869 C.ar    1  UNL1        0.1334
     37 O         142.1946  142.3334  172.1642 O.3     1  UNL1       -0.5055
     38 C         140.6229  141.1596  170.4607 C.ar    1  UNL1        0.0334
     39 C         140.3700  140.6219  169.0835 C.ar    1  UNL1       -0.0058
     40 C         139.1777  139.9469  168.4729 C.3     1  UNL1        0.0995
     41 H         143.0184  142.7308  172.3680 H       1  UNL1        0.2922
@<TRIPOS>BOND
     1     5     6    1
     2     6     7   ar
     3     7     8   ar
     4     8     9   ar
     5     9     1    1
     6     1     2    2
     7     1     3   am
     8     3    23    1
     9    23    24   ar
    10    24    25   ar
    11    25    26   ar
    12    26    30    1
    13    30    31    1
    14    31    32    1
    15    32    33    1
    16    33    34   ar
    17    34    35   ar
    18    35    36   ar
    19    36    37    1
    20    36    38   ar
    21    38    39   ar
    22    39    40    1
    23    26    27   ar
    24    27    28    1
    25    27    29   ar
    26     9    10   ar
    27    10    11   ar
    28    11    12    1
    29    12    13    3
    30    13    14    1
    31    14    15   ar
    32    15    16   ar
    33    16    17   ar
    34    17    18   ar
    35    18    19   ar
    36    19    20   ar
    37    20    21   ar
    38    21    22   ar
    39    11     6   ar
    40    22    14   ar
    41    29    23   ar
    42    22    17   ar
    43    40    31    1
    44    39    33   ar
    45     3     4    1
    46    37    41    1
@<TRIPOS>MOLECULE
*****
 41 46 0 0 0
SMALL
GASTEIGER

@<TRIPOS>ATOM
      1 C         143.0013  138.7399  158.7173 C.2     1  UNL1        0.2495
      2 O         144.1185  139.7408  158.7209 O.2     1  UNL1       -0.2698
      3 N         142.2724  138.4249  159.9899 N.am    1  UNL1       -0.2804
      4 H         141.5392  137.7680  159.9875 H       1  UNL1        0.1552
      5 C         141.4484  135.9958  153.6126 C.3     1  UNL1        0.0317
      6 C         141.8367  136.6818  154.8888 C.ar    1  UNL1       -0.0142
      7 C         141.8388  138.1799  154.9643 C.ar    1  UNL1       -0.0035
      8 C         142.2270  138.8659  156.2405 C.ar    1  UNL1        0.0042
      9 C         142.6131  138.0539  157.4412 C.ar    1  UNL1        0.0543
     10 C         142.6110  136.5558  157.3656 C.ar    1  UNL1        0.0124
     11 C         142.2228  135.8697  156.0893 C.ar    1  UNL1        0.0382
     12 C         142.2206  134.3717  156.0138 C.1     1  UNL1       -0.0585
     13 C         142.2185  132.8736  155.9382 C.1     1  UNL1       -0.0388
     14 C         142.2164  131.3755  155.8626 C.ar    1  UNL1        0.1451
     15 C         141.3826  130.5406  154.9364 C.ar    1  UNL1        0.1281
     16 N         141.6986  129.0983  155.2013 N.ar    1  UNL1       -0.2228
     17 C         142.7277  129.0419  156.2912 C.ar    1  UNL1        0.1646
     18 C         143.4147  127.8908  156.9644 C.ar    1  UNL1        0.0405
     19 C         144.4216  128.1471  158.0462 C.ar    1  UNL1        0.0256
     20 C         144.7416  129.5545  158.4548 C.ar    1  UNL1        0.1207
     21 N         144.0546  130.7055  157.7817 N.ar    1  UNL1       -0.1616
     22 N         143.0476  130.4492  156.6999 N.ar    1  UNL1       -0.2030
     23 C         142.6606  139.1110  161.2661 C.ar    1  UNL1        0.0514
     24 C         143.6479  138.4668  162.1936 C.ar    1  UNL1        0.0145
     25 C         144.0361  139.1529  163.4698 C.ar    1  UNL1       -0.0008
     26 C         143.4370  140.4830  163.8185 C.ar    1  UNL1        0.0046
     27 C         142.4496  141.1272  162.8910 C.ar    1  UNL1        0.0562
     28 CL        141.8504  142.4574  163.2397 Cl      1  UNL1       -0.0825
     29 C         142.0614  140.4412  161.6148 C.ar    1  UNL1        0.0258
     30 C         143.8251  141.1691  165.0947 C.3     1  UNL1        0.1005
     31 N         142.8485  141.2489  166.2304 N.3     1  UNL1       -0.2613
     32 C         141.7681  140.2541  166.5357 C.3     1  UNL1        0.0994
     33 C         141.0327  140.7278  167.7542 C.ar    1  UNL1       -0.0086
     34 C         139.8740  140.1531  168.5139 C.ar    1  UNL1       -0.0001
     35 C         139.3411  140.8660  169.7213 C.ar    1  UNL1        0.0363
     36 C         139.9670  142.1536  170.1690 C.ar    1  UNL1        0.1334
     37 O         139.4341  142.8665  171.3765 O.3     1  UNL1       -0.5055
     38 C         141.1256  142.7283  169.4093 C.ar    1  UNL1        0.0334
     39 C         141.6585  142.0154  168.2020 C.ar    1  UNL1       -0.0058
     40 C         142.7807  142.3374  167.2602 C.3     1  UNL1        0.0995
     41 H         138.7103  142.5074  171.8510 H       1  UNL1        0.2922
@<TRIPOS>BOND
     1     5     6    1
     2     6     7   ar
     3     7     8   ar
     4     8     9   ar
     5     9     1    1
     6     1     2    2
     7     1     3   am
     8     3    23    1
     9    23    24   ar
    10    24    25   ar
    11    25    26   ar
    12    26    30    1
    13    30    31    1
    14    31    32    1
    15    32    33    1
    16    33    34   ar
    17    34    35   ar
    18    35    36   ar
    19    36    37    1
    20    36    38   ar
    21    38    39   ar
    22    39    40    1
    23    26    27   ar
    24    27    28    1
    25    27    29   ar
    26     9    10   ar
    27    10    11   ar
    28    11    12    1
    29    12    13    3
    30    13    14    1
    31    14    15   ar
    32    15    16   ar
    33    16    17   ar
    34    17    18   ar
    35    18    19   ar
    36    19    20   ar
    37    20    21   ar
    38    21    22   ar
    39    11     6   ar
    40    22    14   ar
    41    29    23   ar
    42    22    17   ar
    43    40    31    1
    44    39    33   ar
    45     3     4    1
    46    37    41    1
@<TRIPOS>MOLECULE
*****
 41 46 0 0 0
SMALL
GASTEIGER

@<TRIPOS>ATOM
      1 C         139.3259  140.2140  159.6433 C.2     1  UNL1        0.2495
      2 O         139.7488  139.2945  160.7503 O.2     1  UNL1       -0.2698
      3 N         139.0066  141.6491  159.9410 N.am    1  UNL1       -0.2804
      4 H         138.7290  142.2526  159.2144 H       1  UNL1        0.1552
      5 C         138.9110  138.1520  154.0241 C.3     1  UNL1        0.0317
      6 C         139.0147  138.6675  155.4288 C.ar    1  UNL1       -0.0142
      7 C         138.2673  139.9043  155.8310 C.ar    1  UNL1       -0.0035
      8 C         138.3710  140.4198  157.2358 C.ar    1  UNL1        0.0042
      9 C         139.2222  139.6985  158.2385 C.ar    1  UNL1        0.0543
     10 C         139.9696  138.4617  157.8363 C.ar    1  UNL1        0.0124
     11 C         139.8658  137.9462  156.4315 C.ar    1  UNL1        0.0382
     12 C         140.6132  136.7094  156.0293 C.1     1  UNL1       -0.0585
     13 C         141.3606  135.4726  155.6272 C.1     1  UNL1       -0.0388
     14 C         142.1080  134.2358  155.2250 C.ar    1  UNL1        0.1451
     15 C         141.9633  133.5018  153.9248 C.ar    1  UNL1        0.1281
     16 N         142.8972  132.3282  153.9488 N.ar    1  UNL1       -0.2228
     17 C         143.6190  132.3368  155.2636 C.ar    1  UNL1        0.1646
     18 C         144.6574  131.4235  155.8446 C.ar    1  UNL1        0.0405
     19 C         145.2081  131.6892  157.2144 C.ar    1  UNL1        0.0256
     20 C         144.7203  132.8681  158.0031 C.ar    1  UNL1        0.1207
     21 N         143.6819  133.7814  157.4221 N.ar    1  UNL1       -0.1616
     22 N         143.1313  133.5158  156.0524 N.ar    1  UNL1       -0.2030
     23 C         139.1103  142.1646  161.3458 C.ar    1  UNL1        0.0514
     24 C         137.9377  142.0523  162.2744 C.ar    1  UNL1        0.0145
     25 C         138.0414  142.5678  163.6793 C.ar    1  UNL1       -0.0008
     26 C         139.3177  143.1958  164.1554 C.ar    1  UNL1        0.0046
     27 C         140.4904  143.3082  163.2267 C.ar    1  UNL1        0.0562
     28 CL        141.7667  143.9361  163.7029 Cl      1  UNL1       -0.0825
     29 C         140.3866  142.7926  161.8220 C.ar    1  UNL1        0.0258
     30 C         139.4215  143.7113  165.5602 C.3     1  UNL1        0.1005
     31 N         140.0843  142.8791  166.6175 N.3     1  UNL1       -0.2613
     32 C         140.7177  141.5348  166.4132 C.3     1  UNL1        0.0994
     33 C         141.2550  141.0699  167.7343 C.ar    1  UNL1       -0.0086
     34 C         141.9797  139.8207  168.1395 C.ar    1  UNL1       -0.0001
     35 C         142.4030  139.6284  169.5656 C.ar    1  UNL1        0.0363
     36 C         142.1018  140.6854  170.5864 C.ar    1  UNL1        0.1334
     37 O         142.5252  140.4931  172.0125 O.3     1  UNL1       -0.5055
     38 C         141.3771  141.9346  170.1811 C.ar    1  UNL1        0.0334
     39 C         140.9537  142.1269  168.7551 C.ar    1  UNL1       -0.0058
     40 C         140.2302  143.2450  168.0649 C.3     1  UNL1        0.0995
     41 H         142.9779  139.7127  172.2657 H       1  UNL1        0.2922
@<TRIPOS>BOND
     1     5     6    1
     2     6     7   ar
     3     7     8   ar
     4     8     9   ar
     5     9     1    1
     6     1     2    2
     7     1     3   am
     8     3    23    1
     9    23    24   ar
    10    24    25   ar
    11    25    26   ar
    12    26    30    1
    13    30    31    1
    14    31    32    1
    15    32    33    1
    16    33    34   ar
    17    34    35   ar
    18    35    36   ar
    19    36    37    1
    20    36    38   ar
    21    38    39   ar
    22    39    40    1
    23    26    27   ar
    24    27    28    1
    25    27    29   ar
    26     9    10   ar
    27    10    11   ar
    28    11    12    1
    29    12    13    3
    30    13    14    1
    31    14    15   ar
    32    15    16   ar
    33    16    17   ar
    34    17    18   ar
    35    18    19   ar
    36    19    20   ar
    37    20    21   ar
    38    21    22   ar
    39    11     6   ar
    40    22    14   ar
    41    29    23   ar
    42    22    17   ar
    43    40    31    1
    44    39    33   ar
    45     3     4    1
    46    37    41    1
@<TRIPOS>MOLECULE
*****
 41 46 0 0 0
SMALL
GASTEIGER

@<TRIPOS>ATOM
      1 C         142.8836  138.2887  158.8056 C.2     1  UNL1        0.2495
      2 O         143.8427  139.4324  158.6567 O.2     1  UNL1       -0.2698
      3 N         142.2003  138.0490  160.1193 N.am    1  UNL1       -0.2804
      4 H         141.5709  137.2984  160.2170 H       1  UNL1        0.1552
      5 C         141.7802  134.6726  154.1467 C.3     1  UNL1        0.0317
      6 C         142.0560  135.5766  155.3114 C.ar    1  UNL1       -0.0142
      7 C         141.6227  137.0120  155.2658 C.ar    1  UNL1       -0.0035
      8 C         141.8986  137.9160  156.4305 C.ar    1  UNL1        0.0042
      9 C         142.6077  137.3847  157.6409 C.ar    1  UNL1        0.0543
     10 C         143.0410  135.9493  157.6864 C.ar    1  UNL1        0.0124
     11 C         142.7651  135.0453  156.5216 C.ar    1  UNL1        0.0382
     12 C         143.1984  133.6100  156.5672 C.1     1  UNL1       -0.0585
     13 C         143.6317  132.1746  156.6127 C.1     1  UNL1       -0.0388
     14 C         144.0650  130.7393  156.6583 C.ar    1  UNL1        0.1451
     15 C         144.1886  129.8943  157.8915 C.ar    1  UNL1        0.1281
     16 N         144.6507  128.5297  157.4740 N.ar    1  UNL1       -0.2228
     17 C         144.8128  128.5313  155.9828 C.ar    1  UNL1        0.1646
     18 C         145.2433  127.4658  155.0188 C.ar    1  UNL1        0.0405
     19 C         145.3117  127.7658  153.5507 C.ar    1  UNL1        0.0256
     20 C         144.9497  129.1314  153.0466 C.ar    1  UNL1        0.1207
     21 N         144.5192  130.1969  154.0106 N.ar    1  UNL1       -0.1616
     22 N         144.4508  129.8969  155.4786 N.ar    1  UNL1       -0.2030
     23 C         142.4762  138.9531  161.2841 C.ar    1  UNL1        0.0514
     24 C         141.5875  140.1330  161.5446 C.ar    1  UNL1        0.0145
     25 C         141.8633  141.0370  162.7094 C.ar    1  UNL1       -0.0008
     26 C         143.0279  140.7611  163.6136 C.ar    1  UNL1        0.0046
     27 C         143.9166  139.5811  163.3531 C.ar    1  UNL1        0.0562
     28 CL        145.0812  139.3051  164.2573 Cl      1  UNL1       -0.0825
     29 C         143.6407  138.6771  162.1883 C.ar    1  UNL1        0.0258
     30 C         143.3037  141.6651  164.7784 C.3     1  UNL1        0.1005
     31 N         142.5301  141.5030  166.0532 N.3     1  UNL1       -0.2613
     32 C         141.6875  142.5542  166.7129 C.3     1  UNL1        0.0994
     33 C         141.0998  141.9622  167.9596 C.ar    1  UNL1       -0.0086
     34 C         140.1902  142.5304  169.0082 C.ar    1  UNL1       -0.0001
     35 C         139.7599  141.6816  170.1677 C.ar    1  UNL1        0.0363
     36 C         140.2392  140.2646  170.2784 C.ar    1  UNL1        0.1334
     37 O         139.8088  139.4157  171.4379 O.3     1  UNL1       -0.5055
     38 C         141.1488  139.6964  169.2298 C.ar    1  UNL1        0.0334
     39 C         141.5792  140.5452  168.0704 C.ar    1  UNL1       -0.0058
     40 C         142.4631  140.2614  166.8922 C.3     1  UNL1        0.0995
     41 H         139.2406  139.7707  172.0930 H       1  UNL1        0.2922
@<TRIPOS>BOND
     1     5     6    1
     2     6     7   ar
     3     7     8   ar
     4     8     9   ar
     5     9     1    1
     6     1     2    2
     7     1     3   am
     8     3    23    1
     9    23    24   ar
    10    24    25   ar
    11    25    26   ar
    12    26    30    1
    13    30    31    1
    14    31    32    1
    15    32    33    1
    16    33    34   ar
    17    34    35   ar
    18    35    36   ar
    19    36    37    1
    20    36    38   ar
    21    38    39   ar
    22    39    40    1
    23    26    27   ar
    24    27    28    1
    25    27    29   ar
    26     9    10   ar
    27    10    11   ar
    28    11    12    1
    29    12    13    3
    30    13    14    1
    31    14    15   ar
    32    15    16   ar
    33    16    17   ar
    34    17    18   ar
    35    18    19   ar
    36    19    20   ar
    37    20    21   ar
    38    21    22   ar
    39    11     6   ar
    40    22    14   ar
    41    29    23   ar
    42    22    17   ar
    43    40    31    1
    44    39    33   ar
    45     3     4    1
    46    37    41    1
@<TRIPOS>MOLECULE
*****
 41 46 0 0 0
SMALL
GASTEIGER

@<TRIPOS>ATOM
      1 C         139.1409  141.4158  158.5045 C.2     1  UNL1        0.2495
      2 O         140.6407  141.3942  158.5204 O.2     1  UNL1       -0.2698
      3 N         138.3839  141.8454  159.7261 N.am    1  UNL1       -0.2804
      4 H         137.3996  141.8596  159.7156 H       1  UNL1        0.1552
      5 C         136.1696  139.7831  153.5541 C.3     1  UNL1        0.0317
      6 C         136.9124  140.1913  154.7917 C.ar    1  UNL1       -0.0142
      7 C         138.4103  140.1184  154.8257 C.ar    1  UNL1       -0.0035
      8 C         139.1531  140.5266  156.0633 C.ar    1  UNL1        0.0042
      9 C         138.3981  141.0076  157.2669 C.ar    1  UNL1        0.0543
     10 C         136.9002  141.0805  157.2329 C.ar    1  UNL1        0.0124
     11 C         136.1574  140.6723  155.9952 C.ar    1  UNL1        0.0382
     12 C         134.6596  140.7451  155.9612 C.1     1  UNL1       -0.0585
     13 C         133.1617  140.8180  155.9272 C.1     1  UNL1       -0.0388
     14 C         131.6639  140.8908  155.8931 C.ar    1  UNL1        0.1451
     15 C         130.8447  141.7940  155.0194 C.ar    1  UNL1        0.1281
     16 N         129.3967  141.5346  155.3132 N.ar    1  UNL1       -0.2228
     17 C         129.3211  140.4713  156.3684 C.ar    1  UNL1        0.1646
     18 C         128.1573  139.8139  157.0493 C.ar    1  UNL1        0.0405
     19 C         128.3947  138.7587  158.0885 C.ar    1  UNL1        0.0256
     20 C         129.7959  138.3608  158.4470 C.ar    1  UNL1        0.1207
     21 N         130.9596  139.0182  157.7661 N.ar    1  UNL1       -0.1616
     22 N         130.7222  140.0734  156.7269 N.ar    1  UNL1       -0.2030
     23 C         139.1268  142.2536  160.9637 C.ar    1  UNL1        0.0514
     24 C         139.3787  141.2523  162.0517 C.ar    1  UNL1        0.0145
     25 C         140.1216  141.6605  163.2894 C.ar    1  UNL1       -0.0008
     26 C         140.6124  143.0700  163.4389 C.ar    1  UNL1        0.0046
     27 C         140.3603  144.0713  162.3508 C.ar    1  UNL1        0.0562
     28 CL        140.8512  145.4809  162.5004 Cl      1  UNL1       -0.0825
     29 C         139.6176  143.6631  161.1133 C.ar    1  UNL1        0.0258
     30 C         141.3551  143.4782  164.6765 C.3     1  UNL1        0.1005
     31 N         141.3280  142.5993  165.8917 N.3     1  UNL1       -0.2613
     32 C         142.4041  141.6426  166.3122 C.3     1  UNL1        0.0994
     33 C         141.9611  140.9748  167.5802 C.ar    1  UNL1       -0.0086
     34 C         142.6126  139.9418  168.4510 C.ar    1  UNL1       -0.0001
     35 C         141.9141  139.4526  169.6850 C.ar    1  UNL1        0.0363
     36 C         140.5642  139.9965  170.0482 C.ar    1  UNL1        0.1334
     37 O         139.8658  139.5073  171.2823 O.3     1  UNL1       -0.5055
     38 C         139.9128  141.0296  169.1774 C.ar    1  UNL1        0.0334
     39 C         140.6113  141.5188  167.9434 C.ar    1  UNL1       -0.0058
     40 C         140.2200  142.5228  166.8999 C.3     1  UNL1        0.0995
     41 H         140.2727  138.8620  171.8263 H       1  UNL1        0.2922
@<TRIPOS>BOND
     1     5     6    1
     2     6     7   ar
     3     7     8   ar
     4     8     9   ar
     5     9     1    1
     6     1     2    2
     7     1     3   am
     8     3    23    1
     9    23    24   ar
    10    24    25   ar
    11    25    26   ar
    12    26    30    1
    13    30    31    1
    14    31    32    1
    15    32    33    1
    16    33    34   ar
    17    34    35   ar
    18    35    36   ar
    19    36    37    1
    20    36    38   ar
    21    38    39   ar
    22    39    40    1
    23    26    27   ar
    24    27    28    1
    25    27    29   ar
    26     9    10   ar
    27    10    11   ar
    28    11    12    1
    29    12    13    3
    30    13    14    1
    31    14    15   ar
    32    15    16   ar
    33    16    17   ar
    34    17    18   ar
    35    18    19   ar
    36    19    20   ar
    37    20    21   ar
    38    21    22   ar
    39    11     6   ar
    40    22    14   ar
    41    29    23   ar
    42    22    17   ar
    43    40    31    1
    44    39    33   ar
    45     3     4    1
    46    37    41    1
@<TRIPOS>MOLECULE
*****
 41 46 0 0 0
SMALL
GASTEIGER

@<TRIPOS>ATOM
      1 C         139.0906  141.2154  159.2787 C.2     1  UNL1        0.2495
      2 O         140.5065  140.7208  159.2555 O.2     1  UNL1       -0.2698
      3 N         138.3030  141.1754  160.5546 N.am    1  UNL1       -0.2804
      4 H         137.3736  141.5000  160.5699 H       1  UNL1        0.1552
      5 C         136.5775  143.3544  154.2679 C.3     1  UNL1        0.0317
      6 C         137.2057  142.8197  155.5206 C.ar    1  UNL1       -0.0142
      7 C         136.6933  141.5502  156.1338 C.ar    1  UNL1       -0.0035
      8 C         137.3216  141.0155  157.3865 C.ar    1  UNL1        0.0042
      9 C         138.4623  141.7502  158.0261 C.ar    1  UNL1        0.0543
     10 C         138.9747  143.0196  157.4129 C.ar    1  UNL1        0.0124
     11 C         138.3464  143.5543  156.1601 C.ar    1  UNL1        0.0382
     12 C         138.8588  144.8238  155.5469 C.1     1  UNL1       -0.0585
     13 C         139.3713  146.0932  154.9337 C.1     1  UNL1       -0.0388
     14 C         139.8837  147.3626  154.3205 C.ar    1  UNL1        0.1451
     15 C         140.8366  147.4622  153.1663 C.ar    1  UNL1        0.1281
     16 N         141.0750  148.9165  152.8864 N.ar    1  UNL1       -0.2228
     17 C         140.2695  149.7156  153.8675 C.ar    1  UNL1        0.1646
     18 C         140.1113  151.1936  154.0683 C.ar    1  UNL1        0.0405
     19 C         139.2168  151.7113  155.1554 C.ar    1  UNL1        0.0256
     20 C         138.4805  150.7509  156.0418 C.ar    1  UNL1        0.1207
     21 N         138.6387  149.2729  155.8410 N.ar    1  UNL1       -0.1616
     22 N         139.5332  148.7552  154.7538 N.ar    1  UNL1       -0.2030
     23 C         138.9312  140.6406  161.8074 C.ar    1  UNL1        0.0514
     24 C         139.9256  141.4724  162.5619 C.ar    1  UNL1        0.0145
     25 C         140.5538  140.9377  163.8147 C.ar    1  UNL1       -0.0008
     26 C         140.1877  139.5711  164.3129 C.ar    1  UNL1        0.0046
     27 C         139.1932  138.7392  163.5584 C.ar    1  UNL1        0.0562
     28 CL        138.8271  137.3726  164.0567 Cl      1  UNL1       -0.0825
     29 C         138.5650  139.2740  162.3057 C.ar    1  UNL1        0.0258
     30 C         140.8159  139.0363  165.5657 C.3     1  UNL1        0.1005
     31 N         141.0485  139.9460  166.7354 N.3     1  UNL1       -0.2613
     32 C         140.0381  140.3127  167.7817 C.3     1  UNL1        0.0994
     33 C         140.6975  141.2421  168.7572 C.ar    1  UNL1       -0.0086
     34 C         140.1900  141.9261  169.9919 C.ar    1  UNL1       -0.0001
     35 C         141.1003  142.8177  170.7832 C.ar    1  UNL1        0.0363
     36 C         142.5182  143.0253  170.3398 C.ar    1  UNL1        0.1334
     37 O         143.4285  143.9170  171.1312 O.3     1  UNL1       -0.5055
     38 C         143.0257  142.3413  169.1051 C.ar    1  UNL1        0.0334
     39 C         142.1153  141.4497  168.3138 C.ar    1  UNL1       -0.0058
     40 C         142.3322  140.6487  167.0643 C.3     1  UNL1        0.0995
     41 H         143.1115  144.3443  171.9025 H       1  UNL1        0.2922
@<TRIPOS>BOND
     1     5     6    1
     2     6     7   ar
     3     7     8   ar
     4     8     9   ar
     5     9     1    1
     6     1     2    2
     7     1     3   am
     8     3    23    1
     9    23    24   ar
    10    24    25   ar
    11    25    26   ar
    12    26    30    1
    13    30    31    1
    14    31    32    1
    15    32    33    1
    16    33    34   ar
    17    34    35   ar
    18    35    36   ar
    19    36    37    1
    20    36    38   ar
    21    38    39   ar
    22    39    40    1
    23    26    27   ar
    24    27    28    1
    25    27    29   ar
    26     9    10   ar
    27    10    11   ar
    28    11    12    1
    29    12    13    3
    30    13    14    1
    31    14    15   ar
    32    15    16   ar
    33    16    17   ar
    34    17    18   ar
    35    18    19   ar
    36    19    20   ar
    37    20    21   ar
    38    21    22   ar
    39    11     6   ar
    40    22    14   ar
    41    29    23   ar
    42    22    17   ar
    43    40    31    1
    44    39    33   ar
    45     3     4    1
    46    37    41    1
@<TRIPOS>MOLECULE
*****
 41 46 0 0 0
SMALL
GASTEIGER

@<TRIPOS>ATOM
      1 C         139.4869  141.5824  159.6257 C.2     1  UNL1        0.2495
      2 O         140.8059  141.2214  160.2423 O.2     1  UNL1       -0.2698
      3 N         138.2245  141.4515  160.4251 N.am    1  UNL1       -0.2804
      4 H         137.3588  141.6885  160.0204 H       1  UNL1        0.1552
      5 C         139.2611  143.5502  153.9621 C.3     1  UNL1        0.0317
      6 C         139.3176  143.0582  155.3780 C.ar    1  UNL1       -0.0142
      7 C         139.4184  141.5880  155.6577 C.ar    1  UNL1       -0.0035
      8 C         139.4748  141.0961  157.0736 C.ar    1  UNL1        0.0042
      9 C         139.4305  142.0744  158.2099 C.ar    1  UNL1        0.0543
     10 C         139.3297  143.5446  157.9301 C.ar    1  UNL1        0.0124
     11 C         139.2732  144.0365  156.5142 C.ar    1  UNL1        0.0382
     12 C         139.1724  145.5068  156.2344 C.1     1  UNL1       -0.0585
     13 C         139.0716  146.9770  155.9547 C.1     1  UNL1       -0.0388
     14 C         138.9707  148.4472  155.6750 C.ar    1  UNL1        0.1451
     15 C         138.3920  149.4820  156.5941 C.ar    1  UNL1        0.1281
     16 N         138.4946  150.8151  155.9141 N.ar    1  UNL1       -0.2228
     17 C         139.1366  150.6043  154.5750 C.ar    1  UNL1        0.1646
     18 C         139.4913  151.5559  153.4710 C.ar    1  UNL1        0.0405
     19 C         140.1402  151.0440  152.2193 C.ar    1  UNL1        0.0256
     20 C         140.4345  149.5806  152.0715 C.ar    1  UNL1        0.1207
     21 N         140.0798  148.6291  153.1755 N.ar    1  UNL1       -0.1616
     22 N         139.4309  149.1409  154.4272 N.ar    1  UNL1       -0.2030
     23 C         138.2809  140.9596  161.8410 C.ar    1  UNL1        0.0514
     24 C         138.0512  141.9130  162.9760 C.ar    1  UNL1        0.0145
     25 C         138.1076  141.4210  164.3920 C.ar    1  UNL1       -0.0008
     26 C         138.3937  139.9756  164.6729 C.ar    1  UNL1        0.0046
     27 C         138.6235  139.0222  163.5378 C.ar    1  UNL1        0.0562
     28 CL        138.9096  137.5768  163.8188 Cl      1  UNL1       -0.0825
     29 C         138.5670  139.5142  162.1220 C.ar    1  UNL1        0.0258
     30 C         138.4501  139.4837  166.0887 C.3     1  UNL1        0.1005
     31 N         139.4514  140.0619  167.0443 N.3     1  UNL1       -0.2613
     32 C         139.3012  140.1468  168.5344 C.3     1  UNL1        0.0994
     33 C         140.5356  140.7941  169.0886 C.ar    1  UNL1       -0.0086
     34 C         140.9461  141.1372  170.4899 C.ar    1  UNL1       -0.0001
     35 C         142.2698  141.7956  170.7437 C.ar    1  UNL1        0.0363
     36 C         143.1829  142.1108  169.5962 C.ar    1  UNL1        0.1334
     37 O         144.5066  142.7692  169.8500 O.3     1  UNL1       -0.5055
     38 C         142.7724  141.7677  168.1949 C.ar    1  UNL1        0.0334
     39 C         141.4488  141.1093  167.9411 C.ar    1  UNL1       -0.0058
     40 C         140.7787  140.6568  166.6777 C.3     1  UNL1        0.0995
     41 H         144.7631  142.9836  170.7254 H       1  UNL1        0.2922
@<TRIPOS>BOND
     1     5     6    1
     2     6     7   ar
     3     7     8   ar
     4     8     9   ar
     5     9     1    1
     6     1     2    2
     7     1     3   am
     8     3    23    1
     9    23    24   ar
    10    24    25   ar
    11    25    26   ar
    12    26    30    1
    13    30    31    1
    14    31    32    1
    15    32    33    1
    16    33    34   ar
    17    34    35   ar
    18    35    36   ar
    19    36    37    1
    20    36    38   ar
    21    38    39   ar
    22    39    40    1
    23    26    27   ar
    24    27    28    1
    25    27    29   ar
    26     9    10   ar
    27    10    11   ar
    28    11    12    1
    29    12    13    3
    30    13    14    1
    31    14    15   ar
    32    15    16   ar
    33    16    17   ar
    34    17    18   ar
    35    18    19   ar
    36    19    20   ar
    37    20    21   ar
    38    21    22   ar
    39    11     6   ar
    40    22    14   ar
    41    29    23   ar
    42    22    17   ar
    43    40    31    1
    44    39    33   ar
    45     3     4    1
    46    37    41    1
@<TRIPOS>MOLECULE
*****
 41 46 0 0 0
SMALL
GASTEIGER

@<TRIPOS>ATOM
      1 C         138.8120  141.4038  160.4515 C.2     1  UNL1        0.2495
      2 O         138.3827  142.8114  160.7418 O.2     1  UNL1       -0.2698
      3 N         139.2957  141.0348  159.0804 N.am    1  UNL1       -0.2804
      4 H         139.5774  140.1109  158.8899 H       1  UNL1        0.1552
      5 C         138.5946  137.2490  164.7747 C.3     1  UNL1        0.0317
      6 C         138.6490  138.2877  163.6939 C.ar    1  UNL1       -0.0142
      7 C         138.3308  137.9128  162.2768 C.ar    1  UNL1       -0.0035
      8 C         138.3851  138.9515  161.1960 C.ar    1  UNL1        0.0042
      9 C         138.7577  140.3651  161.5323 C.ar    1  UNL1        0.0543
     10 C         139.0759  140.7400  162.9494 C.ar    1  UNL1        0.0124
     11 C         139.0215  139.7012  164.0303 C.ar    1  UNL1        0.0382
     12 C         139.3397  140.0761  165.4474 C.1     1  UNL1       -0.0585
     13 C         139.6579  140.4509  166.8645 C.1     1  UNL1       -0.0388
     14 C         139.9761  140.8258  168.2816 C.ar    1  UNL1        0.1451
     15 C         139.0828  140.6220  169.4694 C.ar    1  UNL1        0.1281
     16 N         139.7981  141.1405  170.6816 N.ar    1  UNL1       -0.2228
     17 C         141.1333  141.6647  170.2432 C.ar    1  UNL1        0.1646
     18 C         142.2633  142.2941  171.0029 C.ar    1  UNL1        0.0405
     19 C         143.5032  142.7289  170.2793 C.ar    1  UNL1        0.0256
     20 C         143.6131  142.5344  168.7960 C.ar    1  UNL1        0.1207
     21 N         142.4832  141.9050  168.0363 N.ar    1  UNL1       -0.1616
     22 N         141.2433  141.4702  168.7599 N.ar    1  UNL1       -0.2030
     23 C         139.3500  142.0734  157.9995 C.ar    1  UNL1        0.0514
     24 C         140.6220  142.8272  157.7470 C.ar    1  UNL1        0.0145
     25 C         140.6764  143.8659  156.6661 C.ar    1  UNL1       -0.0008
     26 C         139.4587  144.1507  155.8378 C.ar    1  UNL1        0.0046
     27 C         138.1867  143.3969  156.0903 C.ar    1  UNL1        0.0562
     28 CL        136.9690  143.6817  155.2620 Cl      1  UNL1       -0.0825
     29 C         138.1324  142.3583  157.1712 C.ar    1  UNL1        0.0258
     30 C         139.5130  145.1894  154.7569 C.3     1  UNL1        0.1005
     31 N         139.3655  146.6412  155.1038 N.3     1  UNL1       -0.2613
     32 C         138.8015  147.1897  156.3809 C.3     1  UNL1        0.0994
     33 C         138.8435  148.6870  156.3009 C.ar    1  UNL1       -0.0086
     34 C         138.4208  149.7559  157.2645 C.ar    1  UNL1       -0.0001
     35 C         138.5881  151.2016  156.9016 C.ar    1  UNL1        0.0363
     36 C         139.1781  151.5785  155.5751 C.ar    1  UNL1        0.1334
     37 O         139.3453  153.0244  155.2122 O.3     1  UNL1       -0.5055
     38 C         139.6008  150.5097  154.6114 C.ar    1  UNL1        0.0334
     39 C         139.4336  149.0639  154.9743 C.ar    1  UNL1       -0.0058
     40 C         139.7562  147.7995  154.2345 C.3     1  UNL1        0.0995
     41 H         139.0813  153.6921  155.8142 H       1  UNL1        0.2922
@<TRIPOS>BOND
     1     5     6    1
     2     6     7   ar
     3     7     8   ar
     4     8     9   ar
     5     9     1    1
     6     1     2    2
     7     1     3   am
     8     3    23    1
     9    23    24   ar
    10    24    25   ar
    11    25    26   ar
    12    26    30    1
    13    30    31    1
    14    31    32    1
    15    32    33    1
    16    33    34   ar
    17    34    35   ar
    18    35    36   ar
    19    36    37    1
    20    36    38   ar
    21    38    39   ar
    22    39    40    1
    23    26    27   ar
    24    27    28    1
    25    27    29   ar
    26     9    10   ar
    27    10    11   ar
    28    11    12    1
    29    12    13    3
    30    13    14    1
    31    14    15   ar
    32    15    16   ar
    33    16    17   ar
    34    17    18   ar
    35    18    19   ar
    36    19    20   ar
    37    20    21   ar
    38    21    22   ar
    39    11     6   ar
    40    22    14   ar
    41    29    23   ar
    42    22    17   ar
    43    40    31    1
    44    39    33   ar
    45     3     4    1
    46    37    41    1
