@<TRIPOS>MOLECULE
*****
 38 42 0 0 0
SMALL
GASTEIGER

@<TRIPOS>ATOM
      1 C         141.3282  139.5121  163.9804 C.ar    1  UNL1        0.0502
      2 C         140.6649  138.2753  163.4510 C.ar    1  UNL1        0.0143
      3 C         140.7152  137.9668  161.9840 C.ar    1  UNL1       -0.0030
      4 C         141.4287  138.8950  161.0463 C.ar    1  UNL1       -0.0223
      5 C         142.0920  140.1318  161.5757 C.ar    1  UNL1       -0.0034
      6 C         142.0417  140.4404  163.0427 C.ar    1  UNL1        0.0089
      7 C         141.4790  138.5864  159.5792 C.3     1  UNL1        0.0251
      8 C         142.8007  138.5067  158.8744 C.3     1  UNL1        0.0217
      9 C         142.8509  138.1980  157.4073 C.3     1  UNL1        0.0725
     10 N         141.5795  137.9691  156.6451 N.3     1  UNL1       -0.2715
     11 C         140.2577  138.0489  157.3500 C.3     1  UNL1        0.0725
     12 C         140.2075  138.3575  158.8170 C.3     1  UNL1        0.0217
     13 C         141.6297  137.6605  155.1781 C.3     1  UNL1        0.0896
     14 C         142.5060  136.5523  154.6744 C.3     1  UNL1        0.0898
     15 N         142.4166  135.1870  155.2894 N.3     1  UNL1       -0.2672
     16 C         141.3974  134.2055  154.7916 C.3     1  UNL1        0.1047
     17 C         141.3081  132.8403  155.4066 C.3     1  UNL1        0.1595
     18 O         142.2379  132.4566  156.5193 O.3     1  UNL1       -0.3508
     19 C         143.2571  133.4381  157.0171 C.3     1  UNL1        0.1595
     20 C         143.3464  134.8033  156.4022 C.3     1  UNL1        0.1047
     21 C         142.7050  141.6773  163.5722 C.2     1  UNL1       -0.0253
     22 C         141.9755  142.9877  163.5495 C.2     1  UNL1       -0.0303
     23 C         142.6388  144.2246  164.0789 C.3     1  UNL1        0.0257
     24 C         144.0316  144.1510  164.6311 C.3     1  UNL1        0.0050
     25 C         144.7611  142.8405  164.6538 C.3     1  UNL1        0.0050
     26 C         144.0977  141.6036  164.1243 C.3     1  UNL1        0.0261
     27 C         142.2958  139.2253  166.3744 C.2     1  UNL1        0.2837
     28 O         143.3640  138.3213  165.8343 O.2     1  UNL1       -0.2665
     29 N         141.2779  139.8208  165.4475 N.am    1  UNL1       -0.2779
     30 H         140.5768  140.4141  165.8020 H       1  UNL1        0.1553
     31 C         141.6498  140.5352  169.9705 C.ar    1  UNL1        0.1469
     32 C         142.6868  139.4823  170.2275 C.ar    1  UNL1        0.1282
     33 N         143.0550  138.8635  168.9117 N.ar    1  UNL1       -0.2205
     34 C         142.2456  139.5339  167.8415 C.ar    1  UNL1        0.1958
     35 N         141.3772  140.5671  168.4959 N.ar    1  UNL1       -0.3257
     36 H         140.7401  141.1618  168.0379 H       1  UNL1        0.1682
     37 N         140.3495  142.2724  172.0422 N.1     1  UNL1       -0.1893
     38 C         140.9997  141.4038  171.0063 C.1     1  UNL1        0.1194
@<TRIPOS>BOND
     1    37    38    3
     2    38    31    1
     3    31    32   ar
     4    32    33   ar
     5    33    34   ar
     6    34    27    1
     7    27    28    2
     8    27    29   am
     9    29     1    1
    10     1     2   ar
    11     2     3   ar
    12     3     4   ar
    13     4     7    1
    14     7     8    1
    15     8     9    1
    16     9    10    1
    17    10    13    1
    18    13    14    1
    19    14    15    1
    20    15    16    1
    21    16    17    1
    22    17    18    1
    23    18    19    1
    24    19    20    1
    25    10    11    1
    26    11    12    1
    27     4     5   ar
    28     5     6   ar
    29     6    21    1
    30    21    22    2
    31    22    23    1
    32    23    24    1
    33    24    25    1
    34    25    26    1
    35    34    35   ar
    36    35    31   ar
    37     6     1   ar
    38    26    21    1
    39    12     7    1
    40    20    15    1
    41    29    30    1
    42    35    36    1
@<TRIPOS>MOLECULE
*****
 38 42 0 0 0
SMALL
GASTEIGER

@<TRIPOS>ATOM
      1 C         140.9516  139.5142  164.0604 C.ar    1  UNL1        0.0502
      2 C         141.5485  138.2051  163.6363 C.ar    1  UNL1        0.0143
      3 C         141.6232  137.8515  162.1805 C.ar    1  UNL1       -0.0030
      4 C         141.1011  138.8071  161.1488 C.ar    1  UNL1       -0.0223
      5 C         140.5042  140.1162  161.5730 C.ar    1  UNL1       -0.0034
      6 C         140.4295  140.4698  163.0287 C.ar    1  UNL1        0.0089
      7 C         141.1758  138.4534  159.6930 C.3     1  UNL1        0.0251
      8 C         139.9206  138.3698  158.8761 C.3     1  UNL1        0.0217
      9 C         139.9954  138.0161  157.4202 C.3     1  UNL1        0.0725
     10 N         141.3254  137.7461  156.7814 N.3     1  UNL1       -0.2715
     11 C         142.5807  137.8298  157.5984 C.3     1  UNL1        0.0725
     12 C         142.5059  138.1834  159.0541 C.3     1  UNL1        0.0217
     13 C         141.4002  137.3925  155.3256 C.3     1  UNL1        0.0896
     14 C         142.3897  136.3694  154.8523 C.3     1  UNL1        0.0898
     15 N         142.3345  134.9690  155.3870 N.3     1  UNL1       -0.2672
     16 C         143.2721  134.5455  156.4786 C.3     1  UNL1        0.1047
     17 C         143.2169  133.1451  157.0132 C.3     1  UNL1        0.1595
     18 O         142.2240  132.1683  156.4564 O.3     1  UNL1       -0.3508
     19 C         141.2864  132.5918  155.3648 C.3     1  UNL1        0.1595
     20 C         141.3417  133.9921  154.8302 C.3     1  UNL1        0.1047
     21 C         139.8326  141.7789  163.4529 C.2     1  UNL1       -0.0253
     22 C         140.7120  142.9805  163.6341 C.2     1  UNL1       -0.0303
     23 C         140.1152  144.2896  164.0582 C.3     1  UNL1        0.0257
     24 C         138.6389  144.3973  164.3013 C.3     1  UNL1        0.0050
     25 C         137.7595  143.1957  164.1201 C.3     1  UNL1        0.0050
     26 C         138.3564  141.8865  163.6959 C.3     1  UNL1        0.0261
     27 C         139.6403  139.5487  166.3030 C.2     1  UNL1        0.2837
     28 O         138.4785  138.8758  165.6340 O.2     1  UNL1       -0.2665
     29 N         140.8769  139.8679  165.5163 N.am    1  UNL1       -0.2779
     30 H         141.6394  140.3095  165.9553 H       1  UNL1        0.1553
     31 C         140.1122  140.7958  169.9482 C.ar    1  UNL1        0.1469
     32 C         138.7887  140.0970  170.0500 C.ar    1  UNL1        0.1282
     33 N         138.4509  139.5448  168.6969 N.ar    1  UNL1       -0.2205
     34 C         139.5655  139.9023  167.7588 C.ar    1  UNL1        0.1958
     35 N         140.5922  140.6754  168.5322 N.ar    1  UNL1       -0.3257
     36 H         141.4335  141.0399  168.1734 H       1  UNL1        0.1682
     37 N         141.5469  142.1895  172.1841 N.1     1  UNL1       -0.1893
     38 C         140.8295  141.4926  171.0661 C.1     1  UNL1        0.1194
@<TRIPOS>BOND
     1    37    38    3
     2    38    31    1
     3    31    32   ar
     4    32    33   ar
     5    33    34   ar
     6    34    27    1
     7    27    28    2
     8    27    29   am
     9    29     1    1
    10     1     2   ar
    11     2     3   ar
    12     3     4   ar
    13     4     7    1
    14     7     8    1
    15     8     9    1
    16     9    10    1
    17    10    13    1
    18    13    14    1
    19    14    15    1
    20    15    16    1
    21    16    17    1
    22    17    18    1
    23    18    19    1
    24    19    20    1
    25    10    11    1
    26    11    12    1
    27     4     5   ar
    28     5     6   ar
    29     6    21    1
    30    21    22    2
    31    22    23    1
    32    23    24    1
    33    24    25    1
    34    25    26    1
    35    34    35   ar
    36    35    31   ar
    37     6     1   ar
    38    26    21    1
    39    12     7    1
    40    20    15    1
    41    29    30    1
    42    35    36    1
@<TRIPOS>MOLECULE
*****
 38 42 0 0 0
SMALL
GASTEIGER

@<TRIPOS>ATOM
      1 C         141.1758  139.1679  163.9041 C.ar    1  UNL1        0.0502
      2 C         141.8245  137.9607  163.2943 C.ar    1  UNL1        0.0143
      3 C         141.9032  137.8247  161.8026 C.ar    1  UNL1       -0.0030
      4 C         141.3332  138.8959  160.9207 C.ar    1  UNL1       -0.0223
      5 C         140.6845  140.1030  161.5305 C.ar    1  UNL1       -0.0034
      6 C         140.6058  140.2390  163.0222 C.ar    1  UNL1        0.0089
      7 C         141.4120  138.7598  159.4289 C.3     1  UNL1        0.0251
      8 C         140.2050  138.3272  158.6504 C.3     1  UNL1        0.0217
      9 C         140.2838  138.1912  157.1586 C.3     1  UNL1        0.0725
     10 N         141.5696  138.4878  156.4454 N.3     1  UNL1       -0.2715
     11 C         142.7766  138.9204  157.2239 C.3     1  UNL1        0.0725
     12 C         142.6978  139.0564  158.7156 C.3     1  UNL1        0.0217
     13 C         141.6484  138.3517  154.9537 C.3     1  UNL1        0.0896
     14 C         142.4737  137.2583  154.3429 C.3     1  UNL1        0.0898
     15 N         142.5337  135.9095  154.9966 N.3     1  UNL1       -0.2672
     16 C         143.6784  135.5656  155.9028 C.3     1  UNL1        0.1047
     17 C         143.7384  134.2169  156.5565 C.3     1  UNL1        0.1595
     18 O         142.6536  133.2121  156.3040 O.3     1  UNL1       -0.3508
     19 C         141.5089  133.5561  155.3978 C.3     1  UNL1        0.1595
     20 C         141.4490  134.9048  154.7441 C.3     1  UNL1        0.1047
     21 C         139.9571  141.4462  163.6321 C.2     1  UNL1       -0.0253
     22 C         140.8033  142.5705  164.1515 C.2     1  UNL1       -0.0303
     23 C         140.1547  143.7776  164.7614 C.3     1  UNL1        0.0257
     24 C         138.6597  143.8606  164.8518 C.3     1  UNL1        0.0050
     25 C         137.8134  142.7363  164.3323 C.3     1  UNL1        0.0050
     26 C         138.4621  141.5291  163.7224 C.3     1  UNL1        0.0261
     27 C         142.3172  139.6875  166.1794 C.2     1  UNL1        0.2837
     28 O         143.6162  139.9350  165.4712 O.2     1  UNL1       -0.2665
     29 N         141.0970  139.3039  165.3959 N.am    1  UNL1       -0.2779
     30 H         140.2445  139.1415  165.8607 H       1  UNL1        0.1553
     31 C         141.6483  140.6130  169.8890 C.ar    1  UNL1        0.1469
     32 C         142.5864  139.4528  170.0444 C.ar    1  UNL1        0.1282
     33 N         142.9512  138.9649  168.6737 N.ar    1  UNL1       -0.2205
     34 C         142.2385  139.8235  167.6712 C.ar    1  UNL1        0.1958
     35 N         141.4333  140.8420  168.4223 N.ar    1  UNL1       -0.3257
     36 H         140.8637  141.5386  168.0228 H       1  UNL1        0.1682
     37 N         140.4181  142.1969  172.1201 N.1     1  UNL1       -0.1893
     38 C         141.0332  141.4050  171.0046 C.1     1  UNL1        0.1194
@<TRIPOS>BOND
     1    37    38    3
     2    38    31    1
     3    31    32   ar
     4    32    33   ar
     5    33    34   ar
     6    34    27    1
     7    27    28    2
     8    27    29   am
     9    29     1    1
    10     1     2   ar
    11     2     3   ar
    12     3     4   ar
    13     4     7    1
    14     7     8    1
    15     8     9    1
    16     9    10    1
    17    10    13    1
    18    13    14    1
    19    14    15    1
    20    15    16    1
    21    16    17    1
    22    17    18    1
    23    18    19    1
    24    19    20    1
    25    10    11    1
    26    11    12    1
    27     4     5   ar
    28     5     6   ar
    29     6    21    1
    30    21    22    2
    31    22    23    1
    32    23    24    1
    33    24    25    1
    34    25    26    1
    35    34    35   ar
    36    35    31   ar
    37     6     1   ar
    38    26    21    1
    39    12     7    1
    40    20    15    1
    41    29    30    1
    42    35    36    1
@<TRIPOS>MOLECULE
*****
 38 42 0 0 0
SMALL
GASTEIGER

@<TRIPOS>ATOM
      1 C         142.4779  141.4361  163.5992 C.ar    1  UNL1        0.0502
      2 C         143.7725  140.7448  163.2891 C.ar    1  UNL1        0.0143
      3 C         144.2912  140.7203  161.8819 C.ar    1  UNL1       -0.0030
      4 C         143.5154  141.3870  160.7848 C.ar    1  UNL1       -0.0223
      5 C         142.2208  142.0782  161.0949 C.ar    1  UNL1       -0.0034
      6 C         141.7021  142.1028  162.5021 C.ar    1  UNL1        0.0089
      7 C         144.0342  141.3624  159.3775 C.3     1  UNL1        0.0251
      8 C         144.9090  142.4751  158.8811 C.3     1  UNL1        0.0217
      9 C         145.4278  142.4505  157.4739 C.3     1  UNL1        0.0725
     10 N         145.0718  141.3131  156.5631 N.3     1  UNL1       -0.2715
     11 C         144.1969  140.2003  157.0595 C.3     1  UNL1        0.0725
     12 C         143.6782  140.2250  158.4667 C.3     1  UNL1        0.0217
     13 C         145.5905  141.2885  155.1559 C.3     1  UNL1        0.0896
     14 C         146.2737  142.4967  154.5872 C.3     1  UNL1        0.0898
     15 N         147.7610  142.4950  154.3920 N.3     1  UNL1       -0.2672
     16 C         148.6362  141.6872  155.3037 C.3     1  UNL1        0.1047
     17 C         150.1234  141.6855  155.1085 C.3     1  UNL1        0.1595
     18 O         150.7354  142.4917  154.0015 O.3     1  UNL1       -0.3508
     19 C         149.8602  143.2996  153.0897 C.3     1  UNL1        0.1595
     20 C         148.3730  143.3012  153.2849 C.3     1  UNL1        0.1047
     21 C         140.4074  142.7940  162.8122 C.2     1  UNL1       -0.0253
     22 C         140.4117  144.2180  163.2837 C.2     1  UNL1       -0.0303
     23 C         139.1172  144.9093  163.5939 C.3     1  UNL1        0.0257
     24 C         137.8182  144.1766  163.4326 C.3     1  UNL1        0.0050
     25 C         137.8139  142.7526  162.9611 C.3     1  UNL1        0.0050
     26 C         139.1086  142.0613  162.6509 C.3     1  UNL1        0.0261
     27 C         140.9747  140.4242  165.4611 C.2     1  UNL1        0.2837
     28 O         140.5091  139.3631  164.5084 O.2     1  UNL1       -0.2665
     29 N         141.9591  141.4607  165.0064 N.am    1  UNL1       -0.2779
     30 H         142.2647  142.1571  165.6316 H       1  UNL1        0.1553
     31 C         140.1952  140.9738  169.2234 C.ar    1  UNL1        0.1469
     32 C         139.1198  139.9992  168.8440 C.ar    1  UNL1        0.1282
     33 N         139.2810  139.6748  167.3884 N.ar    1  UNL1       -0.2205
     34 C         140.4559  140.4487  166.8682 C.ar    1  UNL1        0.1958
     35 N         141.0209  141.2516  168.0023 N.ar    1  UNL1       -0.3257
     36 H         141.7973  141.8549  167.9538 H       1  UNL1        0.1682
     37 N         140.6199  142.1592  171.9464 N.1     1  UNL1       -0.1893
     38 C         140.4075  141.5665  170.5849 C.1     1  UNL1        0.1194
@<TRIPOS>BOND
     1    37    38    3
     2    38    31    1
     3    31    32   ar
     4    32    33   ar
     5    33    34   ar
     6    34    27    1
     7    27    28    2
     8    27    29   am
     9    29     1    1
    10     1     2   ar
    11     2     3   ar
    12     3     4   ar
    13     4     7    1
    14     7     8    1
    15     8     9    1
    16     9    10    1
    17    10    13    1
    18    13    14    1
    19    14    15    1
    20    15    16    1
    21    16    17    1
    22    17    18    1
    23    18    19    1
    24    19    20    1
    25    10    11    1
    26    11    12    1
    27     4     5   ar
    28     5     6   ar
    29     6    21    1
    30    21    22    2
    31    22    23    1
    32    23    24    1
    33    24    25    1
    34    25    26    1
    35    34    35   ar
    36    35    31   ar
    37     6     1   ar
    38    26    21    1
    39    12     7    1
    40    20    15    1
    41    29    30    1
    42    35    36    1
@<TRIPOS>MOLECULE
*****
 38 42 0 0 0
SMALL
GASTEIGER

@<TRIPOS>ATOM
      1 C         140.8098  142.6977  163.2814 C.ar    1  UNL1        0.0502
      2 C         140.7768  144.1726  163.0100 C.ar    1  UNL1        0.0143
      3 C         140.5463  144.6735  161.6151 C.ar    1  UNL1       -0.0030
      4 C         140.3486  143.6996  160.4916 C.ar    1  UNL1       -0.0223
      5 C         140.3816  142.2247  160.7629 C.ar    1  UNL1       -0.0034
      6 C         140.6121  141.7238  162.1578 C.ar    1  UNL1        0.0089
      7 C         140.1180  144.2006  159.0966 C.3     1  UNL1        0.0251
      8 C         140.5811  145.5729  158.7064 C.3     1  UNL1        0.0217
      9 C         140.3505  146.0739  157.3114 C.3     1  UNL1        0.0725
     10 N         139.6569  145.2025  156.3067 N.3     1  UNL1       -0.2715
     11 C         139.1938  143.8301  156.6969 C.3     1  UNL1        0.0725
     12 C         139.4244  143.3292  158.0918 C.3     1  UNL1        0.0217
     13 C         139.4263  145.7034  154.9117 C.3     1  UNL1        0.0896
     14 C         140.2685  146.8184  154.3665 C.3     1  UNL1        0.0898
     15 N         139.7857  148.2358  154.4559 N.3     1  UNL1       -0.2672
     16 C         138.9568  148.6734  155.6269 C.3     1  UNL1        0.1047
     17 C         138.4740  150.0907  155.7163 C.3     1  UNL1        0.1595
     18 O         138.8201  151.0705  154.6345 O.3     1  UNL1       -0.3508
     19 C         139.6490  150.6330  153.4634 C.3     1  UNL1        0.1595
     20 C         140.1318  149.2156  153.3741 C.3     1  UNL1        0.1047
     21 C         140.6451  140.2489  162.4293 C.2     1  UNL1       -0.0253
     22 C         141.9585  139.5269  162.4916 C.2     1  UNL1       -0.0303
     23 C         141.9915  138.0521  162.7630 C.3     1  UNL1        0.0257
     24 C         140.7111  137.2991  162.9721 C.3     1  UNL1        0.0050
     25 C         139.3977  138.0210  162.9098 C.3     1  UNL1        0.0050
     26 C         139.3647  139.4960  162.6383 C.3     1  UNL1        0.0261
     27 C         139.8722  141.8572  165.5540 C.2     1  UNL1        0.2837
     28 O         138.4735  142.0187  165.0366 O.2     1  UNL1       -0.2665
     29 N         141.0403  142.1967  164.6764 N.am    1  UNL1       -0.2779
     30 H         141.9583  142.0908  165.0159 H       1  UNL1        0.1553
     31 C         140.4266  141.2890  169.3533 C.ar    1  UNL1        0.1469
     32 C         140.4883  139.8816  168.8377 C.ar    1  UNL1        0.1282
     33 N         140.2882  139.9233  167.3517 N.ar    1  UNL1       -0.2205
     34 C         140.1027  141.3562  166.9489 C.ar    1  UNL1        0.1958
     35 N         140.1883  142.2003  168.1859 N.ar    1  UNL1       -0.3257
     36 H         140.1030  143.1803  168.2248 H       1  UNL1        0.1682
     37 N         140.7270  142.1327  172.2165 N.1     1  UNL1       -0.1893
     38 C         140.5768  141.7108  170.7849 C.1     1  UNL1        0.1194
@<TRIPOS>BOND
     1    37    38    3
     2    38    31    1
     3    31    32   ar
     4    32    33   ar
     5    33    34   ar
     6    34    27    1
     7    27    28    2
     8    27    29   am
     9    29     1    1
    10     1     2   ar
    11     2     3   ar
    12     3     4   ar
    13     4     7    1
    14     7     8    1
    15     8     9    1
    16     9    10    1
    17    10    13    1
    18    13    14    1
    19    14    15    1
    20    15    16    1
    21    16    17    1
    22    17    18    1
    23    18    19    1
    24    19    20    1
    25    10    11    1
    26    11    12    1
    27     4     5   ar
    28     5     6   ar
    29     6    21    1
    30    21    22    2
    31    22    23    1
    32    23    24    1
    33    24    25    1
    34    25    26    1
    35    34    35   ar
    36    35    31   ar
    37     6     1   ar
    38    26    21    1
    39    12     7    1
    40    20    15    1
    41    29    30    1
    42    35    36    1
@<TRIPOS>MOLECULE
*****
 38 42 0 0 0
SMALL
GASTEIGER

@<TRIPOS>ATOM
      1 C         141.1499  139.0725  164.0275 C.ar    1  UNL1        0.0502
      2 C         141.7355  137.8258  163.4337 C.ar    1  UNL1        0.0143
      3 C         141.8077  137.6669  161.9439 C.ar    1  UNL1       -0.0030
      4 C         141.2943  138.7549  161.0479 C.ar    1  UNL1       -0.0223
      5 C         140.7088  140.0016  161.6417 C.ar    1  UNL1       -0.0034
      6 C         140.6366  140.1605  163.1315 C.ar    1  UNL1        0.0089
      7 C         141.3665  138.5960  159.5581 C.3     1  UNL1        0.0251
      8 C         140.2516  139.1068  158.6944 C.3     1  UNL1        0.0217
      9 C         140.3238  138.9479  157.2046 C.3     1  UNL1        0.0725
     10 N         141.5110  138.2782  156.5784 N.3     1  UNL1       -0.2715
     11 C         142.6260  137.7674  157.4422 C.3     1  UNL1        0.0725
     12 C         142.5537  137.9263  158.9319 C.3     1  UNL1        0.0217
     13 C         141.5832  138.1193  155.0886 C.3     1  UNL1        0.0896
     14 C         142.8976  138.2682  154.3814 C.3     1  UNL1        0.0898
     15 N         143.7274  139.4999  154.5922 N.3     1  UNL1       -0.2672
     16 C         145.1102  139.3842  155.1619 C.3     1  UNL1        0.1047
     17 C         145.9399  140.6159  155.3727 C.3     1  UNL1        0.1595
     18 O         145.3869  141.9633  155.0138 O.3     1  UNL1       -0.3508
     19 C         144.0041  142.0789  154.4441 C.3     1  UNL1        0.1595
     20 C         143.1744  140.8473  154.2333 C.3     1  UNL1        0.1047
     21 C         140.0510  141.4073  163.7253 C.2     1  UNL1       -0.0253
     22 C         138.5704  141.5107  163.9428 C.2     1  UNL1       -0.0303
     23 C         137.9848  142.7574  164.5366 C.3     1  UNL1        0.0257
     24 C         138.8798  143.9009  164.9130 C.3     1  UNL1        0.0050
     25 C         140.3603  143.7975  164.6955 C.3     1  UNL1        0.0050
     26 C         140.9459  142.5507  164.1017 C.3     1  UNL1        0.0261
     27 C         142.2923  139.6612  166.2855 C.2     1  UNL1        0.2837
     28 O         143.5791  139.9321  165.5638 O.2     1  UNL1       -0.2665
     29 N         141.0777  139.2314  165.5174 N.am    1  UNL1       -0.2779
     30 H         140.2332  139.0536  165.9910 H       1  UNL1        0.1553
     31 C         141.6385  140.6425  169.9834 C.ar    1  UNL1        0.1469
     32 C         142.5797  139.4868  170.1523 C.ar    1  UNL1        0.1282
     33 N         142.9392  138.9785  168.7876 N.ar    1  UNL1       -0.2205
     34 C         142.2202  139.8201  167.7753 C.ar    1  UNL1        0.1958
     35 N         141.4163  140.8485  168.5143 N.ar    1  UNL1       -0.3257
     36 H         140.8435  141.5377  168.1068 H       1  UNL1        0.1682
     37 N         140.4153  142.2583  172.1955 N.1     1  UNL1       -0.1893
     38 C         141.0269  141.4504  171.0894 C.1     1  UNL1        0.1194
@<TRIPOS>BOND
     1    37    38    3
     2    38    31    1
     3    31    32   ar
     4    32    33   ar
     5    33    34   ar
     6    34    27    1
     7    27    28    2
     8    27    29   am
     9    29     1    1
    10     1     2   ar
    11     2     3   ar
    12     3     4   ar
    13     4     7    1
    14     7     8    1
    15     8     9    1
    16     9    10    1
    17    10    13    1
    18    13    14    1
    19    14    15    1
    20    15    16    1
    21    16    17    1
    22    17    18    1
    23    18    19    1
    24    19    20    1
    25    10    11    1
    26    11    12    1
    27     4     5   ar
    28     5     6   ar
    29     6    21    1
    30    21    22    2
    31    22    23    1
    32    23    24    1
    33    24    25    1
    34    25    26    1
    35    34    35   ar
    36    35    31   ar
    37     6     1   ar
    38    26    21    1
    39    12     7    1
    40    20    15    1
    41    29    30    1
    42    35    36    1
@<TRIPOS>MOLECULE
*****
 38 42 0 0 0
SMALL
GASTEIGER

@<TRIPOS>ATOM
      1 C         143.1281  140.1355  164.0906 C.ar    1  UNL1        0.0502
      2 C         144.4082  140.3253  163.3321 C.ar    1  UNL1        0.0143
      3 C         144.4535  140.0538  161.8576 C.ar    1  UNL1       -0.0030
      4 C         143.2187  139.5925  161.1417 C.ar    1  UNL1       -0.0223
      5 C         141.9387  139.4027  161.9002 C.ar    1  UNL1       -0.0034
      6 C         141.8934  139.6742  163.3747 C.ar    1  UNL1        0.0089
      7 C         143.2641  139.3210  159.6671 C.3     1  UNL1        0.0251
      8 C         142.7627  138.0135  159.1295 C.3     1  UNL1        0.0217
      9 C         142.8081  137.7420  157.6549 C.3     1  UNL1        0.0725
     10 N         143.3548  138.7780  156.7180 N.3     1  UNL1       -0.2715
     11 C         143.8561  140.0856  157.2557 C.3     1  UNL1        0.0725
     12 C         143.8107  140.3570  158.7302 C.3     1  UNL1        0.0217
     13 C         143.4001  138.5066  155.2435 C.3     1  UNL1        0.0896
     14 C         142.3023  139.0102  154.3541 C.3     1  UNL1        0.0898
     15 N         140.8710  138.8868  154.7860 N.3     1  UNL1       -0.2672
     16 C         140.2384  139.9729  155.6046 C.3     1  UNL1        0.1047
     17 C         138.8073  139.8495  156.0365 C.3     1  UNL1        0.1595
     18 O         138.0087  138.6400  155.6497 O.3     1  UNL1       -0.3508
     19 C         138.6414  137.5540  154.8310 C.3     1  UNL1        0.1595
     20 C         140.0725  137.6774  154.3992 C.3     1  UNL1        0.1047
     21 C         140.6133  139.4844  164.1333 C.2     1  UNL1       -0.0253
     22 C         140.2342  138.1229  164.6359 C.2     1  UNL1       -0.0303
     23 C         138.9541  137.9331  165.3945 C.3     1  UNL1        0.0257
     24 C         138.0532  139.1048  165.6505 C.3     1  UNL1        0.0050
     25 C         138.4323  140.4663  165.1479 C.3     1  UNL1        0.0050
     26 C         139.7124  140.6561  164.3893 C.3     1  UNL1        0.0261
     27 C         142.8758  141.8064  166.0641 C.2     1  UNL1        0.2837
     28 O         142.7142  142.9342  165.0885 O.2     1  UNL1       -0.2665
     29 N         143.0828  140.4070  165.5652 N.am    1  UNL1       -0.2779
     30 H         143.1889  139.6667  166.2056 H       1  UNL1        0.1553
     31 C         142.0516  142.2525  169.8306 C.ar    1  UNL1        0.1469
     32 C         143.4698  142.7391  169.7847 C.ar    1  UNL1        0.1282
     33 N         143.9511  142.6311  168.3681 N.ar    1  UNL1       -0.2205
     34 C         142.8305  142.0779  167.5386 C.ar    1  UNL1        0.1958
     35 N         141.6565  141.8439  168.4425 N.ar    1  UNL1       -0.3257
     36 H         140.7805  141.4851  168.1721 H       1  UNL1        0.1682
     37 N         140.3110  142.1198  172.2705 N.1     1  UNL1       -0.1893
     38 C         141.1813  142.1862  171.0506 C.1     1  UNL1        0.1194
@<TRIPOS>BOND
     1    37    38    3
     2    38    31    1
     3    31    32   ar
     4    32    33   ar
     5    33    34   ar
     6    34    27    1
     7    27    28    2
     8    27    29   am
     9    29     1    1
    10     1     2   ar
    11     2     3   ar
    12     3     4   ar
    13     4     7    1
    14     7     8    1
    15     8     9    1
    16     9    10    1
    17    10    13    1
    18    13    14    1
    19    14    15    1
    20    15    16    1
    21    16    17    1
    22    17    18    1
    23    18    19    1
    24    19    20    1
    25    10    11    1
    26    11    12    1
    27     4     5   ar
    28     5     6   ar
    29     6    21    1
    30    21    22    2
    31    22    23    1
    32    23    24    1
    33    24    25    1
    34    25    26    1
    35    34    35   ar
    36    35    31   ar
    37     6     1   ar
    38    26    21    1
    39    12     7    1
    40    20    15    1
    41    29    30    1
    42    35    36    1
@<TRIPOS>MOLECULE
*****
 38 42 0 0 0
SMALL
GASTEIGER

@<TRIPOS>ATOM
      1 C         139.9129  139.6752  163.7227 C.ar    1  UNL1        0.0502
      2 C         140.0993  138.3636  163.0192 C.ar    1  UNL1        0.0143
      3 C         139.8843  138.2701  161.5376 C.ar    1  UNL1       -0.0030
      4 C         139.4829  139.4881  160.7596 C.ar    1  UNL1       -0.0223
      5 C         139.2965  140.7996  161.4631 C.ar    1  UNL1       -0.0034
      6 C         139.5115  140.8932  162.9447 C.ar    1  UNL1        0.0089
      7 C         139.2679  139.3945  159.2780 C.3     1  UNL1        0.0251
      8 C         139.8959  138.2776  158.4981 C.3     1  UNL1        0.0217
      9 C         139.6809  138.1840  157.0165 C.3     1  UNL1        0.0725
     10 N         138.8379  139.2073  156.3149 N.3     1  UNL1       -0.2715
     11 C         138.2100  140.3242  157.0948 C.3     1  UNL1        0.0725
     12 C         138.4250  140.4178  158.5764 C.3     1  UNL1        0.0217
     13 C         138.6229  139.1137  154.8333 C.3     1  UNL1        0.0896
     14 C         138.8249  140.3224  153.9684 C.3     1  UNL1        0.0898
     15 N         137.6441  141.1383  153.5321 N.3     1  UNL1       -0.2672
     16 C         136.3639  140.4584  153.1466 C.3     1  UNL1        0.1047
     17 C         135.1833  141.2743  152.7104 C.3     1  UNL1        0.1595
     18 O         135.2828  142.7701  152.6596 O.3     1  UNL1       -0.3508
     19 C         136.5631  143.4500  153.0451 C.3     1  UNL1        0.1595
     20 C         137.7437  142.6342  153.4814 C.3     1  UNL1        0.1047
     21 C         139.3250  142.2048  163.6483 C.2     1  UNL1       -0.0253
     22 C         140.5116  143.0749  163.9396 C.2     1  UNL1       -0.0303
     23 C         140.3253  144.3865  164.6432 C.3     1  UNL1        0.0257
     24 C         138.9522  144.8280  165.0554 C.3     1  UNL1        0.0050
     25 C         137.7656  143.9579  164.7641 C.3     1  UNL1        0.0050
     26 C         137.9520  142.6463  164.0605 C.3     1  UNL1        0.0261
     27 C         141.5122  139.9555  165.7509 C.2     1  UNL1        0.2837
     28 O         142.6815  140.0486  164.8159 O.2     1  UNL1       -0.2665
     29 N         140.1279  139.7688  165.2043 N.am    1  UNL1       -0.2779
     30 H         139.3604  139.7077  165.8179 H       1  UNL1        0.1553
     31 C         141.5094  140.7023  169.5598 C.ar    1  UNL1        0.1469
     32 C         142.6069  139.6841  169.4649 C.ar    1  UNL1        0.1282
     33 N         142.7415  139.2805  168.0265 N.ar    1  UNL1       -0.2205
     34 C         141.7272  140.0491  167.2324 C.ar    1  UNL1        0.1958
     35 N         140.9658  140.9278  168.1801 N.ar    1  UNL1       -0.3257
     36 H         140.2371  141.5443  167.9388 H       1  UNL1        0.1682
     37 N         140.5671  142.0506  172.0686 N.1     1  UNL1       -0.1893
     38 C         141.0383  141.3764  170.8142 C.1     1  UNL1        0.1194
@<TRIPOS>BOND
     1    37    38    3
     2    38    31    1
     3    31    32   ar
     4    32    33   ar
     5    33    34   ar
     6    34    27    1
     7    27    28    2
     8    27    29   am
     9    29     1    1
    10     1     2   ar
    11     2     3   ar
    12     3     4   ar
    13     4     7    1
    14     7     8    1
    15     8     9    1
    16     9    10    1
    17    10    13    1
    18    13    14    1
    19    14    15    1
    20    15    16    1
    21    16    17    1
    22    17    18    1
    23    18    19    1
    24    19    20    1
    25    10    11    1
    26    11    12    1
    27     4     5   ar
    28     5     6   ar
    29     6    21    1
    30    21    22    2
    31    22    23    1
    32    23    24    1
    33    24    25    1
    34    25    26    1
    35    34    35   ar
    36    35    31   ar
    37     6     1   ar
    38    26    21    1
    39    12     7    1
    40    20    15    1
    41    29    30    1
    42    35    36    1
@<TRIPOS>MOLECULE
*****
 38 42 0 0 0
SMALL
GASTEIGER

@<TRIPOS>ATOM
      1 C         142.9435  141.2972  164.0177 C.ar    1  UNL1        0.0502
      2 C         144.1809  140.6528  163.4668 C.ar    1  UNL1        0.0143
      3 C         144.4357  140.6599  161.9887 C.ar    1  UNL1       -0.0030
      4 C         143.4531  141.3114  161.0614 C.ar    1  UNL1       -0.0223
      5 C         142.2157  141.9559  161.6122 C.ar    1  UNL1       -0.0034
      6 C         141.9609  141.9487  163.0903 C.ar    1  UNL1        0.0089
      7 C         143.7080  141.3186  159.5831 C.3     1  UNL1        0.0251
      8 C         143.2968  140.1441  158.7455 C.3     1  UNL1        0.0217
      9 C         143.5517  140.1512  157.2673 C.3     1  UNL1        0.0725
     10 N         144.2177  141.3328  156.6268 N.3     1  UNL1       -0.2715
     11 C         144.6288  142.5073  157.4645 C.3     1  UNL1        0.0725
     12 C         144.3739  142.5002  158.9426 C.3     1  UNL1        0.0217
     13 C         144.4726  141.3400  155.1486 C.3     1  UNL1        0.0896
     14 C         144.8985  142.6065  154.4672 C.3     1  UNL1        0.0898
     15 N         146.2633  142.7051  153.8525 N.3     1  UNL1       -0.2672
     16 C         146.9302  141.4777  153.3060 C.3     1  UNL1        0.1047
     17 C         148.2949  141.5764  152.6914 C.3     1  UNL1        0.1595
     18 O         148.9927  142.9025  152.6233 O.3     1  UNL1       -0.3508
     19 C         148.3258  144.1298  153.1699 C.3     1  UNL1        0.1595
     20 C         146.9611  144.0312  153.7845 C.3     1  UNL1        0.1047
     21 C         140.7234  142.5932  163.6412 C.2     1  UNL1       -0.0253
     22 C         139.4644  141.7919  163.7927 C.2     1  UNL1       -0.0303
     23 C         138.2270  142.4362  164.3435 C.3     1  UNL1        0.0257
     24 C         138.2484  143.8820  164.7430 C.3     1  UNL1        0.0050
     25 C         139.5074  144.6832  164.5916 C.3     1  UNL1        0.0050
     26 C         140.7449  144.0388  164.0407 C.3     1  UNL1        0.0261
     27 C         142.7241  139.9979  166.2568 C.2     1  UNL1        0.2837
     28 O         143.0145  138.7128  165.5396 O.2     1  UNL1       -0.2665
     29 N         142.6886  141.2901  165.4959 N.am    1  UNL1       -0.2779
     30 H         142.4980  142.1335  165.9666 H       1  UNL1        0.1553
     31 C         141.7169  140.6350  169.9507 C.ar    1  UNL1        0.1469
     32 C         142.4372  139.3245  170.0686 C.ar    1  UNL1        0.1282
     33 N         142.9022  138.9263  168.6992 N.ar    1  UNL1       -0.2205
     34 C         142.4693  139.9907  167.7350 C.ar    1  UNL1        0.1958
     35 N         141.7368  141.0467  168.5085 N.ar    1  UNL1       -0.3257
     36 H         141.3388  141.8662  168.1351 H       1  UNL1        0.1682
     37 N         140.4578  142.1640  172.2039 N.1     1  UNL1       -0.1893
     38 C         141.0874  141.3995  171.0773 C.1     1  UNL1        0.1194
@<TRIPOS>BOND
     1    37    38    3
     2    38    31    1
     3    31    32   ar
     4    32    33   ar
     5    33    34   ar
     6    34    27    1
     7    27    28    2
     8    27    29   am
     9    29     1    1
    10     1     2   ar
    11     2     3   ar
    12     3     4   ar
    13     4     7    1
    14     7     8    1
    15     8     9    1
    16     9    10    1
    17    10    13    1
    18    13    14    1
    19    14    15    1
    20    15    16    1
    21    16    17    1
    22    17    18    1
    23    18    19    1
    24    19    20    1
    25    10    11    1
    26    11    12    1
    27     4     5   ar
    28     5     6   ar
    29     6    21    1
    30    21    22    2
    31    22    23    1
    32    23    24    1
    33    24    25    1
    34    25    26    1
    35    34    35   ar
    36    35    31   ar
    37     6     1   ar
    38    26    21    1
    39    12     7    1
    40    20    15    1
    41    29    30    1
    42    35    36    1
