@<TRIPOS>MOLECULE
*****
 27 29 0 0 0
SMALL
GASTEIGER

@<TRIPOS>ATOM
      1 C         142.1154  140.1159  167.2187 C.3     1  UNL1        0.1467
      2 C         145.5485  141.8558  162.9726 C.3     1  UNL1        0.0896
      3 N         144.6622  141.6405  164.1635 N.3     1  UNL1       -0.2715
      4 C         144.3478  142.7847  165.0810 C.3     1  UNL1        0.0725
      5 C         143.4616  142.5695  166.2719 C.3     1  UNL1        0.0238
      6 C         142.8898  141.2100  166.5454 C.3     1  UNL1        0.0489
      7 C         143.2043  140.0658  165.6279 C.3     1  UNL1        0.0238
      8 C         144.0905  140.2810  164.4370 C.3     1  UNL1        0.0725
      9 C         142.3064  141.9743  167.6967 C.ar    1  UNL1       -0.0204
     10 C         140.9106  142.5159  167.6070 C.ar    1  UNL1       -0.0042
     11 C         140.3271  143.2802  168.7582 C.ar    1  UNL1       -0.0003
     12 C         141.1397  143.5028  169.9993 C.ar    1  UNL1       -0.0000
     13 C         142.5356  142.9612  170.0891 C.ar    1  UNL1       -0.0003
     14 C         143.1190  142.1969  168.9377 C.ar    1  UNL1       -0.0042
     15 O         141.2196  139.2244  166.4106 O.3     1  UNL1       -0.3470
     16 C         139.7403  139.4715  166.3858 C.3     1  UNL1        0.1875
     17 C         139.0664  139.8612  165.1036 C.ar    1  UNL1        0.0895
     18 C         138.7752  138.8208  164.0630 C.ar    1  UNL1        0.0286
     19 C         138.1014  139.2106  162.7809 C.ar    1  UNL1        0.0604
     20 CL        137.8101  138.1702  161.7402 Cl      1  UNL1       -0.0822
     21 C         137.7187  140.6406  162.5392 C.ar    1  UNL1        0.0345
     22 C         138.0099  141.6811  163.5798 C.ar    1  UNL1        0.1531
     23 N         138.6838  141.2913  164.8620 N.ar    1  UNL1       -0.2431
     24 C         137.6273  143.1111  163.3382 C.3     1  UNL1        0.4349
     25 F         137.2446  144.5412  163.0964 F       1  UNL1       -0.1644
     26 F         137.6550  143.3683  164.8156 F       1  UNL1       -0.1644
     27 F         137.5995  142.8540  161.8606 F       1  UNL1       -0.1644
@<TRIPOS>BOND
     1     2     3    1
     2     3     4    1
     3     4     5    1
     4     5     6    1
     5     6     1    1
     6     1    15    1
     7    15    16    1
     8    16    17    1
     9    17    18   ar
    10    18    19   ar
    11    19    20    1
    12    19    21   ar
    13    21    22   ar
    14    22    24    1
    15    24    25    1
    16    24    26    1
    17    24    27    1
    18    22    23   ar
    19     6     9    1
    20     9    10   ar
    21    10    11   ar
    22    11    12   ar
    23    12    13   ar
    24    13    14   ar
    25     6     7    1
    26     7     8    1
    27     8     3    1
    28    23    17   ar
    29    14     9   ar
@<TRIPOS>MOLECULE
*****
 27 29 0 0 0
SMALL
GASTEIGER

@<TRIPOS>ATOM
      1 C         141.6737  142.8032  165.4526 C.3     1  UNL1        0.1467
      2 C         140.9039  141.6982  171.0229 C.3     1  UNL1        0.0896
      3 N         141.3096  141.8391  169.5857 N.3     1  UNL1       -0.2715
      4 C         142.5339  141.1356  169.0796 C.3     1  UNL1        0.0725
      5 C         142.9396  141.2765  167.6424 C.3     1  UNL1        0.0238
      6 C         142.1211  142.1209  166.7113 C.3     1  UNL1        0.0489
      7 C         140.8968  142.8243  167.2175 C.3     1  UNL1        0.0238
      8 C         140.4910  142.6834  168.6547 C.3     1  UNL1        0.0725
      9 C         143.1900  141.6544  165.7681 C.ar    1  UNL1       -0.0204
     10 C         143.3427  140.1920  165.4717 C.ar    1  UNL1       -0.0042
     11 C         144.4117  139.7254  164.5285 C.ar    1  UNL1       -0.0003
     12 C         145.3279  140.7214  163.8816 C.ar    1  UNL1       -0.0000
     13 C         145.1753  142.1839  164.1779 C.ar    1  UNL1       -0.0003
     14 C         144.1063  142.6504  165.1212 C.ar    1  UNL1       -0.0042
     15 O         140.2102  142.9430  165.1548 O.3     1  UNL1       -0.3470
     16 C         139.5575  142.0323  164.1575 C.3     1  UNL1        0.1875
     17 C         139.5251  140.5527  164.4017 C.ar    1  UNL1        0.0895
     18 C         140.4035  139.6405  163.5977 C.ar    1  UNL1        0.0286
     19 C         140.3710  138.1609  163.8421 C.ar    1  UNL1        0.0604
     20 CL        141.2494  137.2485  163.0381 Cl      1  UNL1       -0.0822
     21 C         139.4604  137.5935  164.8902 C.ar    1  UNL1        0.0345
     22 C         138.5820  138.5058  165.6942 C.ar    1  UNL1        0.1531
     23 N         138.6144  139.9854  165.4500 N.ar    1  UNL1       -0.2431
     24 C         137.6714  137.9384  166.7424 C.3     1  UNL1        0.4349
     25 F         136.7607  137.3709  167.7905 F       1  UNL1       -0.1644
     26 F         137.4722  139.3113  167.3126 F       1  UNL1       -0.1644
     27 F         137.8706  136.5653  166.1722 F       1  UNL1       -0.1644
@<TRIPOS>BOND
     1     2     3    1
     2     3     4    1
     3     4     5    1
     4     5     6    1
     5     6     1    1
     6     1    15    1
     7    15    16    1
     8    16    17    1
     9    17    18   ar
    10    18    19   ar
    11    19    20    1
    12    19    21   ar
    13    21    22   ar
    14    22    24    1
    15    24    25    1
    16    24    26    1
    17    24    27    1
    18    22    23   ar
    19     6     9    1
    20     9    10   ar
    21    10    11   ar
    22    11    12   ar
    23    12    13   ar
    24    13    14   ar
    25     6     7    1
    26     7     8    1
    27     8     3    1
    28    23    17   ar
    29    14     9   ar
@<TRIPOS>MOLECULE
*****
 27 29 0 0 0
SMALL
GASTEIGER

@<TRIPOS>ATOM
      1 C         142.2885  142.6583  165.0650 C.3     1  UNL1        0.1467
      2 C         142.0531  141.9560  170.7477 C.3     1  UNL1        0.0896
      3 N         141.8728  142.2120  169.2808 N.3     1  UNL1       -0.2715
      4 C         140.5507  142.6928  168.7603 C.3     1  UNL1        0.0725
      5 C         140.3704  142.9488  167.2933 C.3     1  UNL1        0.0238
      6 C         141.5122  142.7241  166.3469 C.3     1  UNL1        0.0489
      7 C         142.8342  142.2433  166.8674 C.3     1  UNL1        0.0238
      8 C         143.0145  141.9873  168.3343 C.3     1  UNL1        0.0725
      9 C         140.4597  143.1820  165.3812 C.ar    1  UNL1       -0.0204
     10 C         139.0854  142.5830  165.4299 C.ar    1  UNL1       -0.0042
     11 C         138.0329  143.0409  164.4643 C.ar    1  UNL1       -0.0003
     12 C         138.3547  144.0979  163.4499 C.ar    1  UNL1       -0.0000
     13 C         139.7290  144.6970  163.4010 C.ar    1  UNL1       -0.0003
     14 C         140.7815  144.2391  164.3667 C.ar    1  UNL1       -0.0042
     15 O         143.1259  141.4528  164.7564 O.3     1  UNL1       -0.3470
     16 C         142.6591  140.4563  163.7369 C.3     1  UNL1        0.1875
     17 C         141.2003  140.1261  163.6241 C.ar    1  UNL1        0.0895
     18 C         140.4160  140.5907  162.4328 C.ar    1  UNL1        0.0286
     19 C         138.9572  140.2604  162.3201 C.ar    1  UNL1        0.0604
     20 CL        138.1729  140.7249  161.1288 Cl      1  UNL1       -0.0822
     21 C         138.2826  139.4656  163.3986 C.ar    1  UNL1        0.0345
     22 C         139.0669  139.0010  164.5899 C.ar    1  UNL1        0.1531
     23 N         140.5257  139.3313  164.7027 N.ar    1  UNL1       -0.2431
     24 C         138.3923  138.2062  165.6684 C.3     1  UNL1        0.4349
     25 F         137.7176  137.4116  166.7470 F       1  UNL1       -0.1644
     26 F         139.1534  136.9852  165.2448 F       1  UNL1       -0.1644
     27 F         137.6311  139.4274  166.0921 F       1  UNL1       -0.1644
@<TRIPOS>BOND
     1     2     3    1
     2     3     4    1
     3     4     5    1
     4     5     6    1
     5     6     1    1
     6     1    15    1
     7    15    16    1
     8    16    17    1
     9    17    18   ar
    10    18    19   ar
    11    19    20    1
    12    19    21   ar
    13    21    22   ar
    14    22    24    1
    15    24    25    1
    16    24    26    1
    17    24    27    1
    18    22    23   ar
    19     6     9    1
    20     9    10   ar
    21    10    11   ar
    22    11    12   ar
    23    12    13   ar
    24    13    14   ar
    25     6     7    1
    26     7     8    1
    27     8     3    1
    28    23    17   ar
    29    14     9   ar
@<TRIPOS>MOLECULE
*****
 27 29 0 0 0
SMALL
GASTEIGER

@<TRIPOS>ATOM
      1 C         138.6390  138.7183  163.3447 C.3     1  UNL1        0.1467
      2 C         143.9451  137.8400  161.3658 C.3     1  UNL1        0.0896
      3 N         142.6689  138.1061  162.1077 N.3     1  UNL1       -0.2715
      4 C         142.7041  138.4060  163.5770 C.3     1  UNL1        0.0725
      5 C         141.4278  138.6721  164.3189 C.3     1  UNL1        0.0238
      6 C         140.1164  138.6383  163.5916 C.3     1  UNL1        0.0489
      7 C         140.0813  138.3384  162.1223 C.3     1  UNL1        0.0238
      8 C         141.3575  138.0723  161.3804 C.3     1  UNL1        0.0725
      9 C         139.6385  138.9660  164.9752 C.ar    1  UNL1       -0.0204
     10 C         138.4590  138.2413  165.5525 C.ar    1  UNL1       -0.0042
     11 C         137.9810  138.5689  166.9360 C.ar    1  UNL1       -0.0003
     12 C         138.6827  139.6213  167.7422 C.ar    1  UNL1       -0.0000
     13 C         139.8623  140.3461  167.1650 C.ar    1  UNL1       -0.0003
     14 C         140.3402  140.0184  165.7814 C.ar    1  UNL1       -0.0042
     15 O         138.0948  139.7196  162.3694 O.3     1  UNL1       -0.3470
     16 C         137.5329  141.0195  162.8640 C.3     1  UNL1        0.1875
     17 C         138.4517  142.0812  163.3919 C.ar    1  UNL1        0.0895
     18 C         137.9457  143.0847  164.3854 C.ar    1  UNL1        0.0286
     19 C         138.8645  144.1463  164.9132 C.ar    1  UNL1        0.0604
     20 CL        138.3586  145.1499  165.9067 Cl      1  UNL1       -0.0822
     21 C         140.2892  144.2045  164.4478 C.ar    1  UNL1        0.0345
     22 C         140.7952  143.2009  163.4543 C.ar    1  UNL1        0.1531
     23 N         139.8765  142.1393  162.9264 N.ar    1  UNL1       -0.2431
     24 C         142.2200  143.2591  162.9888 C.3     1  UNL1        0.4349
     25 F         143.6447  143.3174  162.5233 F       1  UNL1       -0.1644
     26 F         142.3397  141.7750  163.1697 F       1  UNL1       -0.1644
     27 F         142.1002  144.7434  162.8080 F       1  UNL1       -0.1644
@<TRIPOS>BOND
     1     2     3    1
     2     3     4    1
     3     4     5    1
     4     5     6    1
     5     6     1    1
     6     1    15    1
     7    15    16    1
     8    16    17    1
     9    17    18   ar
    10    18    19   ar
    11    19    20    1
    12    19    21   ar
    13    21    22   ar
    14    22    24    1
    15    24    25    1
    16    24    26    1
    17    24    27    1
    18    22    23   ar
    19     6     9    1
    20     9    10   ar
    21    10    11   ar
    22    11    12   ar
    23    12    13   ar
    24    13    14   ar
    25     6     7    1
    26     7     8    1
    27     8     3    1
    28    23    17   ar
    29    14     9   ar
@<TRIPOS>MOLECULE
*****
 27 29 0 0 0
SMALL
GASTEIGER

@<TRIPOS>ATOM
      1 C         142.4566  140.2200  166.0036 C.3     1  UNL1        0.1467
      2 C         141.5962  141.7688  171.4536 C.3     1  UNL1        0.0896
      3 N         141.5881  141.2657  170.0405 N.3     1  UNL1       -0.2715
      4 C         140.3840  140.5481  169.5068 C.3     1  UNL1        0.0725
      5 C         140.3759  140.0450  168.0937 C.3     1  UNL1        0.0238
      6 C         141.5720  140.2595  167.2144 C.3     1  UNL1        0.0489
      7 C         142.7761  140.9771  167.7481 C.3     1  UNL1        0.0238
      8 C         142.7842  141.4802  169.1612 C.3     1  UNL1        0.0725
      9 C         140.6750  139.5281  166.2601 C.ar    1  UNL1       -0.0204
     10 C         139.2008  139.8048  166.2548 C.ar    1  UNL1       -0.0042
     11 C         138.3037  139.0735  165.3007 C.ar    1  UNL1       -0.0003
     12 C         138.8810  138.0655  164.3517 C.ar    1  UNL1       -0.0000
     13 C         140.3553  137.7887  164.3569 C.ar    1  UNL1       -0.0003
     14 C         141.2523  138.5201  165.3111 C.ar    1  UNL1       -0.0042
     15 O         143.1517  141.4664  165.5416 O.3     1  UNL1       -0.3470
     16 C         142.6327  142.2173  164.3513 C.3     1  UNL1        0.1875
     17 C         141.1663  142.5088  164.2294 C.ar    1  UNL1        0.0895
     18 C         140.5563  143.6294  165.0183 C.ar    1  UNL1        0.0286
     19 C         139.0900  143.9208  164.8964 C.ar    1  UNL1        0.0604
     20 CL        138.4799  145.0414  165.6853 Cl      1  UNL1       -0.0822
     21 C         138.2337  143.0919  163.9857 C.ar    1  UNL1        0.0345
     22 C         138.8437  141.9713  163.1968 C.ar    1  UNL1        0.1531
     23 N         140.3100  141.6798  163.3187 N.ar    1  UNL1       -0.2431
     24 C         137.9873  141.1424  162.2861 C.3     1  UNL1        0.4349
     25 F         137.1309  140.3134  161.3754 F       1  UNL1       -0.1644
     26 F         139.2060  140.7305  161.5149 F       1  UNL1       -0.1644
     27 F         136.7685  141.5543  163.0574 F       1  UNL1       -0.1644
@<TRIPOS>BOND
     1     2     3    1
     2     3     4    1
     3     4     5    1
     4     5     6    1
     5     6     1    1
     6     1    15    1
     7    15    16    1
     8    16    17    1
     9    17    18   ar
    10    18    19   ar
    11    19    20    1
    12    19    21   ar
    13    21    22   ar
    14    22    24    1
    15    24    25    1
    16    24    26    1
    17    24    27    1
    18    22    23   ar
    19     6     9    1
    20     9    10   ar
    21    10    11   ar
    22    11    12   ar
    23    12    13   ar
    24    13    14   ar
    25     6     7    1
    26     7     8    1
    27     8     3    1
    28    23    17   ar
    29    14     9   ar
@<TRIPOS>MOLECULE
*****
 27 29 0 0 0
SMALL
GASTEIGER

@<TRIPOS>ATOM
      1 C         141.7371  139.1977  165.9731 C.3     1  UNL1        0.1467
      2 C         139.9770  142.4007  170.3873 C.3     1  UNL1        0.0896
      3 N         140.6186  141.7375  169.2047 N.3     1  UNL1       -0.2715
      4 C         141.8236  142.3560  168.5603 C.3     1  UNL1        0.0725
      5 C         142.4652  141.6928  167.3777 C.3     1  UNL1        0.0238
      6 C         141.9018  140.4110  166.8396 C.3     1  UNL1        0.0489
      7 C         140.6968  139.7925  167.4840 C.3     1  UNL1        0.0238
      8 C         140.0552  140.4557  168.6666 C.3     1  UNL1        0.0725
      9 C         143.0497  140.6082  165.8942 C.ar    1  UNL1       -0.0204
     10 C         143.7826  139.4198  165.3462 C.ar    1  UNL1       -0.0042
     11 C         144.9304  139.6169  164.4009 C.ar    1  UNL1       -0.0003
     12 C         145.3452  141.0026  164.0035 C.ar    1  UNL1       -0.0000
     13 C         144.6123  142.1911  164.5515 C.ar    1  UNL1       -0.0003
     14 C         143.4644  141.9939  165.4969 C.ar    1  UNL1       -0.0042
     15 O         140.4029  138.8887  165.3611 O.3     1  UNL1       -0.3470
     16 C         140.0255  139.4927  164.0409 C.3     1  UNL1        0.1875
     17 C         140.2744  140.9493  163.7839 C.ar    1  UNL1        0.0895
     18 C         141.2186  141.3684  162.6963 C.ar    1  UNL1        0.0286
     19 C         141.4676  142.8251  162.4394 C.ar    1  UNL1        0.0604
     20 CL        142.4118  143.2443  161.3517 Cl      1  UNL1       -0.0822
     21 C         140.7724  143.8627  163.2701 C.ar    1  UNL1        0.0345
     22 C         139.8282  143.4437  164.3577 C.ar    1  UNL1        0.1531
     23 N         139.5792  141.9870  164.6147 N.ar    1  UNL1       -0.2431
     24 C         139.1331  144.4813  165.1884 C.3     1  UNL1        0.4349
     25 F         138.4380  145.5189  166.0191 F       1  UNL1       -0.1644
     26 F         138.6156  145.1335  163.9407 F       1  UNL1       -0.1644
     27 F         139.6506  143.8291  166.4361 F       1  UNL1       -0.1644
@<TRIPOS>BOND
     1     2     3    1
     2     3     4    1
     3     4     5    1
     4     5     6    1
     5     6     1    1
     6     1    15    1
     7    15    16    1
     8    16    17    1
     9    17    18   ar
    10    18    19   ar
    11    19    20    1
    12    19    21   ar
    13    21    22   ar
    14    22    24    1
    15    24    25    1
    16    24    26    1
    17    24    27    1
    18    22    23   ar
    19     6     9    1
    20     9    10   ar
    21    10    11   ar
    22    11    12   ar
    23    12    13   ar
    24    13    14   ar
    25     6     7    1
    26     7     8    1
    27     8     3    1
    28    23    17   ar
    29    14     9   ar
@<TRIPOS>MOLECULE
*****
 27 29 0 0 0
SMALL
GASTEIGER

@<TRIPOS>ATOM
      1 C         139.0656  142.4737  165.4999 C.3     1  UNL1        0.1467
      2 C         139.5649  146.3812  161.3376 C.3     1  UNL1        0.0896
      3 N         139.6756  145.4147  162.4794 N.3     1  UNL1       -0.2715
      4 C         140.9652  145.2917  163.2356 C.3     1  UNL1        0.0725
      5 C         141.0758  144.3251  164.3773 C.3     1  UNL1        0.0238
      6 C         139.8970  143.4816  164.7628 C.3     1  UNL1        0.0489
      7 C         138.6074  143.6046  164.0066 C.3     1  UNL1        0.0238
      8 C         138.4967  144.5711  162.8649 C.3     1  UNL1        0.0725
      9 C         140.8978  143.0085  165.7750 C.ar    1  UNL1       -0.0204
     10 C         142.3079  142.7160  165.3555 C.ar    1  UNL1       -0.0042
     11 C         143.3088  142.2430  166.3676 C.ar    1  UNL1       -0.0003
     12 C         142.8995  142.0625  167.7993 C.ar    1  UNL1       -0.0000
     13 C         141.4895  142.3550  168.2190 C.ar    1  UNL1       -0.0003
     14 C         140.4886  142.8280  167.2068 C.ar    1  UNL1       -0.0042
     15 O         138.3143  141.4213  164.7397 O.3     1  UNL1       -0.3470
     16 C         138.5702  139.9695  165.0167 C.3     1  UNL1        0.1875
     17 C         139.9396  139.3954  164.8039 C.ar    1  UNL1        0.0895
     18 C         140.9011  139.3037  165.9516 C.ar    1  UNL1        0.0286
     19 C         142.2704  138.7296  165.7387 C.ar    1  UNL1        0.0604
     20 CL        143.2319  138.6379  166.8864 Cl      1  UNL1       -0.0822
     21 C         142.6783  138.2473  164.3782 C.ar    1  UNL1        0.0345
     22 C         141.7168  138.3390  163.2305 C.ar    1  UNL1        0.1531
     23 N         140.3474  138.9131  163.4433 N.ar    1  UNL1       -0.2431
     24 C         142.1247  137.8567  161.8701 C.3     1  UNL1        0.4349
     25 F         142.5327  137.3743  160.5096 F       1  UNL1       -0.1644
     26 F         140.6903  137.8783  161.4322 F       1  UNL1       -0.1644
     27 F         143.5593  137.8350  162.3079 F       1  UNL1       -0.1644
@<TRIPOS>BOND
     1     2     3    1
     2     3     4    1
     3     4     5    1
     4     5     6    1
     5     6     1    1
     6     1    15    1
     7    15    16    1
     8    16    17    1
     9    17    18   ar
    10    18    19   ar
    11    19    20    1
    12    19    21   ar
    13    21    22   ar
    14    22    24    1
    15    24    25    1
    16    24    26    1
    17    24    27    1
    18    22    23   ar
    19     6     9    1
    20     9    10   ar
    21    10    11   ar
    22    11    12   ar
    23    12    13   ar
    24    13    14   ar
    25     6     7    1
    26     7     8    1
    27     8     3    1
    28    23    17   ar
    29    14     9   ar
@<TRIPOS>MOLECULE
*****
 27 29 0 0 0
SMALL
GASTEIGER

@<TRIPOS>ATOM
      1 C         141.3535  142.8107  165.7652 C.3     1  UNL1        0.1467
      2 C         141.0929  141.5195  171.3425 C.3     1  UNL1        0.0896
      3 N         141.3776  141.7259  169.8843 N.3     1  UNL1       -0.2715
      4 C         142.6131  141.1371  169.2706 C.3     1  UNL1        0.0725
      5 C         142.8978  141.3436  167.8125 C.3     1  UNL1        0.0238
      6 C         141.9469  142.1389  166.9679 C.3     1  UNL1        0.0489
      7 C         140.7113  142.7277  167.5816 C.3     1  UNL1        0.0238
      8 C         140.4267  142.5212  169.0398 C.3     1  UNL1        0.0725
      9 C         142.9764  141.7834  165.9365 C.ar    1  UNL1       -0.0204
     10 C         143.8690  142.8474  165.3700 C.ar    1  UNL1       -0.0042
     11 C         144.8986  142.4920  164.3386 C.ar    1  UNL1       -0.0003
     12 C         145.0354  141.0724  163.8738 C.ar    1  UNL1       -0.0000
     13 C         144.1428  140.0083  164.4403 C.ar    1  UNL1       -0.0003
     14 C         143.1133  140.3638  165.4717 C.ar    1  UNL1       -0.0042
     15 O         139.8710  143.0224  165.6795 O.3     1  UNL1       -0.3470
     16 C         139.0495  142.1999  164.7315 C.3     1  UNL1        0.1875
     17 C         139.1929  140.7069  164.7159 C.ar    1  UNL1        0.0895
     18 C         138.3871  139.8661  165.6613 C.ar    1  UNL1        0.0286
     19 C         138.5305  138.3731  165.6457 C.ar    1  UNL1        0.0604
     20 CL        137.7247  137.5323  166.5911 Cl      1  UNL1       -0.0822
     21 C         139.4797  137.7208  164.6847 C.ar    1  UNL1        0.0345
     22 C         140.2856  138.5616  163.7393 C.ar    1  UNL1        0.1531
     23 N         140.1422  140.0546  163.7549 N.ar    1  UNL1       -0.2431
     24 C         141.2348  137.9093  162.7784 C.3     1  UNL1        0.4349
     25 F         142.1841  137.2571  161.8174 F       1  UNL1       -0.1644
     26 F         141.1002  136.6148  163.5240 F       1  UNL1       -0.1644
     27 F         141.3695  139.2039  162.0327 F       1  UNL1       -0.1644
@<TRIPOS>BOND
     1     2     3    1
     2     3     4    1
     3     4     5    1
     4     5     6    1
     5     6     1    1
     6     1    15    1
     7    15    16    1
     8    16    17    1
     9    17    18   ar
    10    18    19   ar
    11    19    20    1
    12    19    21   ar
    13    21    22   ar
    14    22    24    1
    15    24    25    1
    16    24    26    1
    17    24    27    1
    18    22    23   ar
    19     6     9    1
    20     9    10   ar
    21    10    11   ar
    22    11    12   ar
    23    12    13   ar
    24    13    14   ar
    25     6     7    1
    26     7     8    1
    27     8     3    1
    28    23    17   ar
    29    14     9   ar
@<TRIPOS>MOLECULE
*****
 27 29 0 0 0
SMALL
GASTEIGER

@<TRIPOS>ATOM
      1 C         142.5523  139.9094  165.9644 C.3     1  UNL1        0.1467
      2 C         141.1091  141.7310  171.2028 C.3     1  UNL1        0.0896
      3 N         141.2473  141.1733  169.8172 N.3     1  UNL1       -0.2715
      4 C         140.0732  140.5185  169.1517 C.3     1  UNL1        0.0725
      5 C         140.2115  139.9608  167.7661 C.3     1  UNL1        0.0238
      6 C         141.5237  140.0577  167.0461 C.3     1  UNL1        0.0489
      7 C         142.6977  140.7124  167.7116 C.3     1  UNL1        0.0238
      8 C         142.5595  141.2702  169.0971 C.3     1  UNL1        0.0725
      9 C         140.7068  139.3514  166.0049 C.ar    1  UNL1       -0.0204
     10 C         141.3216  138.2562  165.1850 C.ar    1  UNL1       -0.0042
     11 C         140.5049  137.5499  164.1438 C.ar    1  UNL1       -0.0003
     12 C         139.0732  137.9390  163.9226 C.ar    1  UNL1       -0.0000
     13 C         138.4583  139.0343  164.7425 C.ar    1  UNL1       -0.0003
     14 C         139.2752  139.7405  165.7837 C.ar    1  UNL1       -0.0042
     15 O         143.3911  141.0856  165.5607 O.3     1  UNL1       -0.3470
     16 C         143.0542  141.8560  164.3185 C.3     1  UNL1        0.1875
     17 C         141.6203  142.1148  163.9623 C.ar    1  UNL1        0.0895
     18 C         140.9869  141.3789  162.8189 C.ar    1  UNL1        0.0286
     19 C         139.5530  141.6377  162.4628 C.ar    1  UNL1        0.0604
     20 CL        138.9196  140.9019  161.3193 Cl      1  UNL1       -0.0822
     21 C         138.7525  142.6324  163.2499 C.ar    1  UNL1        0.0345
     22 C         139.3858  143.3683  164.3934 C.ar    1  UNL1        0.1531
     23 N         140.8197  143.1095  164.7496 N.ar    1  UNL1       -0.2431
     24 C         138.5852  144.3630  165.1805 C.3     1  UNL1        0.4349
     25 F         137.7847  145.3576  165.9678 F       1  UNL1       -0.1644
     26 F         137.6639  144.5469  164.0113 F       1  UNL1       -0.1644
     27 F         139.5066  144.1791  166.3499 F       1  UNL1       -0.1644
@<TRIPOS>BOND
     1     2     3    1
     2     3     4    1
     3     4     5    1
     4     5     6    1
     5     6     1    1
     6     1    15    1
     7    15    16    1
     8    16    17    1
     9    17    18   ar
    10    18    19   ar
    11    19    20    1
    12    19    21   ar
    13    21    22   ar
    14    22    24    1
    15    24    25    1
    16    24    26    1
    17    24    27    1
    18    22    23   ar
    19     6     9    1
    20     9    10   ar
    21    10    11   ar
    22    11    12   ar
    23    12    13   ar
    24    13    14   ar
    25     6     7    1
    26     7     8    1
    27     8     3    1
    28    23    17   ar
    29    14     9   ar
