@<TRIPOS>MOLECULE
*****
 33 36 0 0 0
SMALL
GASTEIGER

@<TRIPOS>ATOM
      1 N         140.9306  138.7579  165.0768 N.pl3   1  UNL1       -0.2859
      2 C         141.5994  137.4488  164.7782 C.3     1  UNL1        0.1875
      3 N         141.1239  136.9812  163.4346 N.am    1  UNL1       -0.2862
      4 C         140.1612  138.0012  162.9028 C.2     1  UNL1        0.2397
      5 O         139.4439  137.9349  161.5871 O.2     1  UNL1       -0.2734
      6 C         140.0417  139.0993  163.9177 C.3     1  UNL1        0.1304
      7 C         140.0247  140.1165  165.0200 C.3     1  UNL1        0.0444
      8 C         139.1670  141.3409  164.8973 C.3     1  UNL1        0.0743
      9 N         138.3263  141.5482  163.6724 N.3     1  UNL1       -0.2712
     10 C         138.3434  140.5310  162.5702 C.3     1  UNL1        0.0743
     11 C         139.2011  139.3065  162.6928 C.3     1  UNL1        0.0444
     12 H         141.3958  136.1506  162.9814 H       1  UNL1        0.1510
     13 C         139.2178  140.3665  169.7113 C.3     1  UNL1        0.0311
     14 C         140.2613  140.3853  168.6339 C.ar    1  UNL1       -0.0206
     15 C         141.4921  141.2272  168.7966 C.ar    1  UNL1       -0.0042
     16 C         142.5357  141.2460  167.7192 C.ar    1  UNL1        0.0009
     17 C         142.3485  140.4229  166.4793 C.ar    1  UNL1        0.0145
     18 C         141.1178  139.5810  166.3167 C.ar    1  UNL1        0.0490
     19 C         140.0742  139.5622  167.3940 C.ar    1  UNL1        0.0103
     20 C         137.4686  142.7727  163.5498 C.3     1  UNL1        0.0919
     21 C         138.0947  144.1349  163.5984 C.3     1  UNL1        0.0878
     22 C         138.5370  144.7107  164.9110 C.3     1  UNL1        0.0227
     23 N         138.2785  144.9213  162.3344 N.am    1  UNL1       -0.3011
     24 C         139.6535  145.1224  161.7695 C.2     1  UNL1        0.2458
     25 O         139.8373  145.9089  160.5055 O.2     1  UNL1       -0.2701
     26 H         137.4968  145.3055  161.8755 H       1  UNL1        0.1497
     27 C         140.8446  144.5372  162.4685 C.ar    1  UNL1        0.0534
     28 C         141.1817  143.0866  162.2889 C.ar    1  UNL1        0.0050
     29 C         142.3728  142.5013  162.9880 C.ar    1  UNL1        0.0068
     30 C         143.2267  143.3665  163.8667 C.ar    1  UNL1        0.0346
     31 BR        144.4178  142.7812  164.5658 Br      1  UNL1       -0.0490
     32 C         142.8896  144.8171  164.0463 C.ar    1  UNL1        0.0068
     33 C         141.6985  145.4024  163.3472 C.ar    1  UNL1        0.0050
@<TRIPOS>BOND
     1    13    14    1
     2    14    15   ar
     3    15    16   ar
     4    16    17   ar
     5    17    18   ar
     6    18     1    1
     7     1     2    1
     8     2     3    1
     9     3     4   am
    10     4     5    2
    11     4     6    1
    12     6     7    1
    13     7     8    1
    14     8     9    1
    15     9    20    1
    16    20    21    1
    17    21    22    1
    18    21    23    1
    19    23    24   am
    20    24    25    2
    21    24    27    1
    22    27    28   ar
    23    28    29   ar
    24    29    30   ar
    25    30    31    1
    26    30    32   ar
    27    32    33   ar
    28     9    10    1
    29    10    11    1
    30    18    19   ar
    31    19    14   ar
    32     6     1    1
    33    33    27   ar
    34    11     6    1
    35     3    12    1
    36    23    26    1
@<TRIPOS>MOLECULE
*****
 33 36 0 0 0
SMALL
GASTEIGER

@<TRIPOS>ATOM
      1 N         143.0706  139.3982  164.0948 N.pl3   1  UNL1       -0.2859
      2 C         144.3496  139.0638  164.8037 C.3     1  UNL1        0.1875
      3 N         145.4467  139.8838  164.1922 N.am    1  UNL1       -0.2862
      4 C         144.8458  140.7251  163.1054 C.2     1  UNL1        0.2397
      5 O         145.5838  141.6960  162.2320 O.2     1  UNL1       -0.2734
      6 C         143.3773  140.4250  163.0451 C.3     1  UNL1        0.1304
      7 C         141.9331  140.0239  163.1027 C.3     1  UNL1        0.0444
      8 C         140.9449  140.6420  162.1586 C.3     1  UNL1        0.0743
      9 N         141.4009  141.6612  161.1569 N.3     1  UNL1       -0.2712
     10 C         142.8451  142.0623  161.0994 C.3     1  UNL1        0.0743
     11 C         143.8333  141.4442  162.0435 C.3     1  UNL1        0.0444
     12 H         146.3947  139.8720  164.4576 H       1  UNL1        0.1510
     13 C         138.6675  139.3788  166.8538 C.3     1  UNL1        0.0311
     14 C         139.5203  138.7997  165.7641 C.ar    1  UNL1       -0.0206
     15 C         139.0243  137.6316  164.9643 C.ar    1  UNL1       -0.0042
     16 C         139.8771  137.0525  163.8746 C.ar    1  UNL1        0.0009
     17 C         141.2259  137.6413  163.5848 C.ar    1  UNL1        0.0145
     18 C         141.7218  138.8094  164.3846 C.ar    1  UNL1        0.0490
     19 C         140.8690  139.3885  165.4743 C.ar    1  UNL1        0.0103
     20 C         140.4126  142.2794  160.2128 C.3     1  UNL1        0.0919
     21 C         139.3041  143.1388  160.7443 C.3     1  UNL1        0.0878
     22 C         138.0886  142.5040  161.3524 C.3     1  UNL1        0.0227
     23 N         139.4110  144.6330  160.6677 N.am    1  UNL1       -0.3011
     24 C         139.7288  145.4264  161.9005 C.2     1  UNL1        0.2458
     25 O         139.8357  146.9206  161.8239 O.2     1  UNL1       -0.2701
     26 H         139.2725  145.0930  159.8084 H       1  UNL1        0.1497
     27 C         139.9398  144.7255  163.2097 C.ar    1  UNL1        0.0534
     28 C         141.2790  144.1343  163.5367 C.ar    1  UNL1        0.0050
     29 C         141.4900  143.4334  164.8460 C.ar    1  UNL1        0.0068
     30 C         140.3617  143.3237  165.8283 C.ar    1  UNL1        0.0346
     31 BR        140.5727  142.6228  167.1376 Br      1  UNL1       -0.0490
     32 C         139.0224  143.9149  165.5013 C.ar    1  UNL1        0.0068
     33 C         138.8115  144.6157  164.1920 C.ar    1  UNL1        0.0050
@<TRIPOS>BOND
     1    13    14    1
     2    14    15   ar
     3    15    16   ar
     4    16    17   ar
     5    17    18   ar
     6    18     1    1
     7     1     2    1
     8     2     3    1
     9     3     4   am
    10     4     5    2
    11     4     6    1
    12     6     7    1
    13     7     8    1
    14     8     9    1
    15     9    20    1
    16    20    21    1
    17    21    22    1
    18    21    23    1
    19    23    24   am
    20    24    25    2
    21    24    27    1
    22    27    28   ar
    23    28    29   ar
    24    29    30   ar
    25    30    31    1
    26    30    32   ar
    27    32    33   ar
    28     9    10    1
    29    10    11    1
    30    18    19   ar
    31    19    14   ar
    32     6     1    1
    33    33    27   ar
    34    11     6    1
    35     3    12    1
    36    23    26    1
@<TRIPOS>MOLECULE
*****
 33 36 0 0 0
SMALL
GASTEIGER

@<TRIPOS>ATOM
      1 N         139.6673  140.7221  166.7558 N.pl3   1  UNL1       -0.2859
      2 C         138.8743  139.4800  167.0363 C.3     1  UNL1        0.1875
      3 N         138.0789  139.1506  165.8080 N.am    1  UNL1       -0.2862
      4 C         138.3802  140.1890  164.7683 C.2     1  UNL1        0.2397
      5 O         137.8016  140.2461  163.3856 O.2     1  UNL1       -0.2734
      6 C         139.3619  141.1603  165.3540 C.3     1  UNL1        0.1304
      7 C         140.3384  142.0450  166.0708 C.3     1  UNL1        0.0444
      8 C         140.9136  143.2438  165.3767 C.3     1  UNL1        0.0743
      9 N         140.5124  143.5579  163.9659 N.3     1  UNL1       -0.2712
     10 C         139.5360  142.6732  163.2491 C.3     1  UNL1        0.0743
     11 C         138.9607  141.4744  163.9432 C.3     1  UNL1        0.0444
     12 H         137.4665  138.3869  165.7026 H       1  UNL1        0.1510
     13 C         140.5778  144.4226  170.2881 C.3     1  UNL1        0.0311
     14 C         141.0567  143.2562  169.4756 C.ar    1  UNL1       -0.0206
     15 C         142.4700  142.7735  169.6169 C.ar    1  UNL1       -0.0042
     16 C         142.9489  141.6071  168.8045 C.ar    1  UNL1        0.0009
     17 C         142.0147  140.9233  167.8508 C.ar    1  UNL1        0.0145
     18 C         140.6015  141.4059  167.7095 C.ar    1  UNL1        0.0490
     19 C         140.1226  142.5723  168.5219 C.ar    1  UNL1        0.0103
     20 C         141.0878  144.7568  163.2718 C.3     1  UNL1        0.0919
     21 C         142.5491  144.7997  162.9362 C.3     1  UNL1        0.0878
     22 C         143.5541  145.1237  164.0017 C.3     1  UNL1        0.0227
     23 N         143.0055  144.5185  161.5353 N.am    1  UNL1       -0.3011
     24 C         143.5699  143.1733  161.1861 C.2     1  UNL1        0.2458
     25 O         144.0263  142.8921  159.7852 O.2     1  UNL1       -0.2701
     26 H         142.9347  145.2169  160.8450 H       1  UNL1        0.1497
     27 C         143.6778  142.1093  162.2378 C.ar    1  UNL1        0.0534
     28 C         142.5171  141.1972  162.5037 C.ar    1  UNL1        0.0050
     29 C         142.6249  140.1331  163.5555 C.ar    1  UNL1        0.0068
     30 C         143.8935  139.9812  164.3413 C.ar    1  UNL1        0.0346
     31 BR        144.0014  138.9171  165.3931 Br      1  UNL1       -0.0490
     32 C         145.0543  140.8933  164.0754 C.ar    1  UNL1        0.0068
     33 C         144.9464  141.9573  163.0236 C.ar    1  UNL1        0.0050
@<TRIPOS>BOND
     1    13    14    1
     2    14    15   ar
     3    15    16   ar
     4    16    17   ar
     5    17    18   ar
     6    18     1    1
     7     1     2    1
     8     2     3    1
     9     3     4   am
    10     4     5    2
    11     4     6    1
    12     6     7    1
    13     7     8    1
    14     8     9    1
    15     9    20    1
    16    20    21    1
    17    21    22    1
    18    21    23    1
    19    23    24   am
    20    24    25    2
    21    24    27    1
    22    27    28   ar
    23    28    29   ar
    24    29    30   ar
    25    30    31    1
    26    30    32   ar
    27    32    33   ar
    28     9    10    1
    29    10    11    1
    30    18    19   ar
    31    19    14   ar
    32     6     1    1
    33    33    27   ar
    34    11     6    1
    35     3    12    1
    36    23    26    1
@<TRIPOS>MOLECULE
*****
 33 36 0 0 0
SMALL
GASTEIGER

@<TRIPOS>ATOM
      1 N         141.4304  138.6619  164.8761 N.pl3   1  UNL1       -0.2859
      2 C         141.3331  137.2485  164.3832 C.3     1  UNL1        0.1875
      3 N         141.3277  137.2799  162.8835 N.am    1  UNL1       -0.2862
      4 C         141.4216  138.7127  162.4496 C.2     1  UNL1        0.2397
      5 O         141.4475  139.2050  161.0329 O.2     1  UNL1       -0.2734
      6 C         141.4851  139.5669  163.6811 C.3     1  UNL1        0.1304
      7 C         141.5401  140.2878  164.9953 C.3     1  UNL1        0.0444
      8 C         141.6406  141.7841  165.0262 C.3     1  UNL1        0.0743
      9 N         141.6861  142.5594  163.7430 N.3     1  UNL1       -0.2712
     10 C         141.6312  141.8385  162.4288 C.3     1  UNL1        0.0743
     11 C         141.5307  140.3422  162.3978 C.3     1  UNL1        0.0444
     12 H         141.2723  136.4975  162.2885 H       1  UNL1        0.1510
     13 C         138.9640  140.3025  169.1452 C.3     1  UNL1        0.0311
     14 C         140.2334  139.9147  168.4465 C.ar    1  UNL1       -0.0206
     15 C         141.5391  139.9594  169.1836 C.ar    1  UNL1       -0.0042
     16 C         142.8085  139.5717  168.4849 C.ar    1  UNL1        0.0009
     17 C         142.7723  139.1392  167.0490 C.ar    1  UNL1        0.0145
     18 C         141.4666  139.0944  166.3120 C.ar    1  UNL1        0.0490
     19 C         140.1972  139.4822  167.0107 C.ar    1  UNL1        0.0103
     20 C         141.7867  144.0558  163.7740 C.3     1  UNL1        0.0919
     21 C         140.6219  144.8949  163.3390 C.3     1  UNL1        0.0878
     22 C         140.4846  145.2996  161.9011 C.3     1  UNL1        0.0227
     23 N         139.5944  145.3293  164.3417 N.am    1  UNL1       -0.3011
     24 C         138.3970  144.4667  164.6103 C.2     1  UNL1        0.2458
     25 O         137.3695  144.9011  165.6131 O.2     1  UNL1       -0.2701
     26 H         139.7060  146.1805  164.8237 H       1  UNL1        0.1497
     27 C         138.2270  143.1698  163.8761 C.ar    1  UNL1        0.0534
     28 C         138.1978  141.8764  164.6352 C.ar    1  UNL1        0.0050
     29 C         138.0279  140.5794  163.9010 C.ar    1  UNL1        0.0068
     30 C         137.8871  140.5759  162.4076 C.ar    1  UNL1        0.0346
     31 BR        137.7171  139.2790  161.6734 Br      1  UNL1       -0.0490
     32 C         137.9162  141.8694  161.6485 C.ar    1  UNL1        0.0068
     33 C         138.0862  143.1662  162.3827 C.ar    1  UNL1        0.0050
@<TRIPOS>BOND
     1    13    14    1
     2    14    15   ar
     3    15    16   ar
     4    16    17   ar
     5    17    18   ar
     6    18     1    1
     7     1     2    1
     8     2     3    1
     9     3     4   am
    10     4     5    2
    11     4     6    1
    12     6     7    1
    13     7     8    1
    14     8     9    1
    15     9    20    1
    16    20    21    1
    17    21    22    1
    18    21    23    1
    19    23    24   am
    20    24    25    2
    21    24    27    1
    22    27    28   ar
    23    28    29   ar
    24    29    30   ar
    25    30    31    1
    26    30    32   ar
    27    32    33   ar
    28     9    10    1
    29    10    11    1
    30    18    19   ar
    31    19    14   ar
    32     6     1    1
    33    33    27   ar
    34    11     6    1
    35     3    12    1
    36    23    26    1
@<TRIPOS>MOLECULE
*****
 33 36 0 0 0
SMALL
GASTEIGER

@<TRIPOS>ATOM
      1 N         140.9340  143.3413  162.2441 N.pl3   1  UNL1       -0.2859
      2 C         141.1489  144.0999  160.9680 C.3     1  UNL1        0.1875
      3 N         142.5305  144.6832  161.0026 N.am    1  UNL1       -0.2862
      4 C         143.1694  144.2851  162.3000 C.2     1  UNL1        0.2397
      5 O         144.5521  144.6519  162.7510 O.2     1  UNL1       -0.2734
      6 C         142.1827  143.4557  163.0673 C.3     1  UNL1        0.1304
      7 C         141.0977  142.6465  163.7138 C.3     1  UNL1        0.0444
      8 C         141.3206  142.0384  165.0667 C.3     1  UNL1        0.0743
      9 N         142.6285  142.2394  165.7732 N.3     1  UNL1       -0.2712
     10 C         143.7135  143.0486  165.1267 C.3     1  UNL1        0.0743
     11 C         143.4906  143.6568  163.7738 C.3     1  UNL1        0.0444
     12 H         142.9451  145.2312  160.2976 H       1  UNL1        0.1510
     13 C         138.0789  139.0004  162.1701 C.3     1  UNL1        0.0311
     14 C         138.2615  140.4282  162.5922 C.ar    1  UNL1       -0.0206
     15 C         137.1989  141.1133  163.3996 C.ar    1  UNL1       -0.0042
     16 C         137.3815  142.5411  163.8218 C.ar    1  UNL1        0.0009
     17 C         138.6265  143.2837  163.4366 C.ar    1  UNL1        0.0145
     18 C         139.6890  142.5986  162.6293 C.ar    1  UNL1        0.0490
     19 C         139.5064  141.1709  162.2071 C.ar    1  UNL1        0.0103
     20 C         142.8514  141.6312  167.1262 C.3     1  UNL1        0.0919
     21 C         142.2027  140.3252  167.4775 C.3     1  UNL1        0.0878
     22 C         140.7070  140.2122  167.4983 C.3     1  UNL1        0.0227
     23 N         143.0496  139.1321  167.8079 N.am    1  UNL1       -0.3011
     24 C         143.6968  138.3439  166.7079 C.2     1  UNL1        0.2458
     25 O         144.5437  137.1507  167.0383 O.2     1  UNL1       -0.2701
     26 H         143.1807  138.8663  168.7467 H       1  UNL1        0.1497
     27 C         143.4970  138.7488  165.2775 C.ar    1  UNL1        0.0534
     28 C         144.5695  139.5108  164.5570 C.ar    1  UNL1        0.0050
     29 C         144.3698  139.9158  163.1265 C.ar    1  UNL1        0.0068
     30 C         143.0976  139.5588  162.4166 C.ar    1  UNL1        0.0346
     31 BR        142.8978  139.9638  160.9862 Br      1  UNL1       -0.0490
     32 C         142.0250  138.7969  163.1372 C.ar    1  UNL1        0.0068
     33 C         142.2248  138.3919  164.5676 C.ar    1  UNL1        0.0050
@<TRIPOS>BOND
     1    13    14    1
     2    14    15   ar
     3    15    16   ar
     4    16    17   ar
     5    17    18   ar
     6    18     1    1
     7     1     2    1
     8     2     3    1
     9     3     4   am
    10     4     5    2
    11     4     6    1
    12     6     7    1
    13     7     8    1
    14     8     9    1
    15     9    20    1
    16    20    21    1
    17    21    22    1
    18    21    23    1
    19    23    24   am
    20    24    25    2
    21    24    27    1
    22    27    28   ar
    23    28    29   ar
    24    29    30   ar
    25    30    31    1
    26    30    32   ar
    27    32    33   ar
    28     9    10    1
    29    10    11    1
    30    18    19   ar
    31    19    14   ar
    32     6     1    1
    33    33    27   ar
    34    11     6    1
    35     3    12    1
    36    23    26    1
@<TRIPOS>MOLECULE
*****
 33 36 0 0 0
SMALL
GASTEIGER

@<TRIPOS>ATOM
      1 N         139.3571  138.9953  164.2055 N.pl3   1  UNL1       -0.2859
      2 C         138.9169  137.6308  163.7644 C.3     1  UNL1        0.1875
      3 N         138.2410  137.7698  162.4325 N.am    1  UNL1       -0.2862
      4 C         138.2635  139.2202  162.0504 C.2     1  UNL1        0.2397
      5 O         137.6959  139.8097  160.7934 O.2     1  UNL1       -0.2734
      6 C         138.9533  139.9776  163.1462 C.3     1  UNL1        0.1304
      7 C         139.6602  140.5971  164.3151 C.3     1  UNL1        0.0444
      8 C         139.9034  142.0769  164.3461 C.3     1  UNL1        0.0743
      9 N         139.4397  142.9372  163.2082 N.3     1  UNL1       -0.2712
     10 C         138.7328  142.3177  162.0393 C.3     1  UNL1        0.0743
     11 C         138.4896  140.8379  162.0083 C.3     1  UNL1        0.0444
     12 H         137.8511  137.0377  161.9022 H       1  UNL1        0.1510
     13 C         139.2305  140.3449  169.2217 C.3     1  UNL1        0.0311
     14 C         140.0117  139.9952  167.9899 C.ar    1  UNL1       -0.0206
     15 C         141.5109  139.9705  168.0343 C.ar    1  UNL1       -0.0042
     16 C         142.2921  139.6208  166.8025 C.ar    1  UNL1        0.0009
     17 C         141.5741  139.2957  165.5262 C.ar    1  UNL1        0.0145
     18 C         140.0750  139.3204  165.4818 C.ar    1  UNL1        0.0490
     19 C         139.2938  139.6701  166.7136 C.ar    1  UNL1        0.0103
     20 C         139.6830  144.4170  163.2392 C.3     1  UNL1        0.0919
     21 C         141.0047  144.9693  162.7942 C.3     1  UNL1        0.0878
     22 C         142.0131  145.4134  163.8121 C.3     1  UNL1        0.0227
     23 N         141.3180  145.0776  161.3313 N.am    1  UNL1       -0.3011
     24 C         142.3121  144.1442  160.7061 C.2     1  UNL1        0.2458
     25 O         142.6254  144.2525  159.2432 O.2     1  UNL1       -0.2701
     26 H         140.8713  145.7613  160.7815 H       1  UNL1        0.1497
     27 C         142.9927  143.1026  161.5438 C.ar    1  UNL1        0.0534
     28 C         144.3017  143.4119  162.2077 C.ar    1  UNL1        0.0050
     29 C         144.9823  142.3703  163.0454 C.ar    1  UNL1        0.0068
     30 C         144.3539  141.0194  163.2192 C.ar    1  UNL1        0.0346
     31 BR        145.0345  139.9778  164.0569 Br      1  UNL1       -0.0490
     32 C         143.0449  140.7101  162.5553 C.ar    1  UNL1        0.0068
     33 C         142.3643  141.7517  161.7176 C.ar    1  UNL1        0.0050
@<TRIPOS>BOND
     1    13    14    1
     2    14    15   ar
     3    15    16   ar
     4    16    17   ar
     5    17    18   ar
     6    18     1    1
     7     1     2    1
     8     2     3    1
     9     3     4   am
    10     4     5    2
    11     4     6    1
    12     6     7    1
    13     7     8    1
    14     8     9    1
    15     9    20    1
    16    20    21    1
    17    21    22    1
    18    21    23    1
    19    23    24   am
    20    24    25    2
    21    24    27    1
    22    27    28   ar
    23    28    29   ar
    24    29    30   ar
    25    30    31    1
    26    30    32   ar
    27    32    33   ar
    28     9    10    1
    29    10    11    1
    30    18    19   ar
    31    19    14   ar
    32     6     1    1
    33    33    27   ar
    34    11     6    1
    35     3    12    1
    36    23    26    1
@<TRIPOS>MOLECULE
*****
 33 36 0 0 0
SMALL
GASTEIGER

@<TRIPOS>ATOM
      1 N         141.6951  139.7759  167.1393 N.pl3   1  UNL1       -0.2859
      2 C         142.9715  139.0252  167.3794 C.3     1  UNL1        0.1875
      3 N         143.4341  138.4658  166.0667 N.am    1  UNL1       -0.2862
      4 C         142.4437  138.8707  165.0154 C.2     1  UNL1        0.2397
      5 O         142.5154  138.5264  163.5572 O.2     1  UNL1       -0.2734
      6 C         141.3689  139.6804  165.6783 C.3     1  UNL1        0.1304
      7 C         140.3725  140.4686  166.4756 C.3     1  UNL1        0.0444
      8 C         139.1809  141.0761  165.7968 C.3     1  UNL1        0.0743
      9 N         138.9857  140.8954  164.3205 N.3     1  UNL1       -0.2712
     10 C         139.9821  140.1072  163.5232 C.3     1  UNL1        0.0743
     11 C         141.1738  139.4997  164.2021 C.3     1  UNL1        0.0444
     12 H         144.2453  137.9274  165.9207 H       1  UNL1        0.1510
     13 C         140.6702  144.0869  169.8531 C.3     1  UNL1        0.0311
     14 C         140.3745  142.6512  169.5348 C.ar    1  UNL1       -0.0206
     15 C         139.2705  141.9352  170.2552 C.ar    1  UNL1       -0.0042
     16 C         138.9749  140.4995  169.9369 C.ar    1  UNL1        0.0009
     17 C         139.7831  139.7797  168.8982 C.ar    1  UNL1        0.0145
     18 C         140.8869  140.4957  168.1779 C.ar    1  UNL1        0.0490
     19 C         141.1826  141.9314  168.4962 C.ar    1  UNL1        0.0103
     20 C         137.7940  141.5029  163.6417 C.3     1  UNL1        0.0919
     21 C         137.9175  142.0365  162.2452 C.3     1  UNL1        0.0878
     22 C         138.1596  141.0963  161.1017 C.3     1  UNL1        0.0227
     23 N         137.7988  143.5102  161.9922 N.am    1  UNL1       -0.3011
     24 C         138.9735  144.4103  162.2376 C.2     1  UNL1        0.2458
     25 O         138.8548  145.8840  161.9846 O.2     1  UNL1       -0.2701
     26 H         136.9500  143.8868  161.6651 H       1  UNL1        0.1497
     27 C         140.2667  143.8366  162.7359 C.ar    1  UNL1        0.0534
     28 C         140.6326  143.9598  164.1854 C.ar    1  UNL1        0.0050
     29 C         141.9259  143.3861  164.6838 C.ar    1  UNL1        0.0068
     30 C         142.8532  142.6892  163.7327 C.ar    1  UNL1        0.0346
     31 BR        144.1464  142.1155  164.2311 Br      1  UNL1       -0.0490
     32 C         142.4872  142.5661  162.2832 C.ar    1  UNL1        0.0068
     33 C         141.1940  143.1398  161.7849 C.ar    1  UNL1        0.0050
@<TRIPOS>BOND
     1    13    14    1
     2    14    15   ar
     3    15    16   ar
     4    16    17   ar
     5    17    18   ar
     6    18     1    1
     7     1     2    1
     8     2     3    1
     9     3     4   am
    10     4     5    2
    11     4     6    1
    12     6     7    1
    13     7     8    1
    14     8     9    1
    15     9    20    1
    16    20    21    1
    17    21    22    1
    18    21    23    1
    19    23    24   am
    20    24    25    2
    21    24    27    1
    22    27    28   ar
    23    28    29   ar
    24    29    30   ar
    25    30    31    1
    26    30    32   ar
    27    32    33   ar
    28     9    10    1
    29    10    11    1
    30    18    19   ar
    31    19    14   ar
    32     6     1    1
    33    33    27   ar
    34    11     6    1
    35     3    12    1
    36    23    26    1
@<TRIPOS>MOLECULE
*****
 33 36 0 0 0
SMALL
GASTEIGER

@<TRIPOS>ATOM
      1 N         141.2565  143.1265  161.9203 N.pl3   1  UNL1       -0.2859
      2 C         140.8929  143.7939  160.6270 C.3     1  UNL1        0.1875
      3 N         139.5497  144.4389  160.7998 N.am    1  UNL1       -0.2862
      4 C         139.0831  144.1701  162.1998 C.2     1  UNL1        0.2397
      5 O         137.7890  144.6314  162.8018 O.2     1  UNL1       -0.2734
      6 C         140.1380  143.3590  162.8924 C.3     1  UNL1        0.1304
      7 C         141.2741  142.5544  163.4506 C.3     1  UNL1        0.0444
      8 C         141.2200  142.0623  164.8666 C.3     1  UNL1        0.0743
      9 N         140.0297  142.3748  165.7242 N.3     1  UNL1       -0.2712
     10 C         138.8935  143.1794  165.1659 C.3     1  UNL1        0.0743
     11 C         138.9477  143.6715  163.7500 C.3     1  UNL1        0.0444
     12 H         139.0602  144.9490  160.1147 H       1  UNL1        0.1510
     13 C         143.8337  138.6182  162.1022 C.3     1  UNL1        0.0311
     14 C         143.8057  140.1068  162.2844 C.ar    1  UNL1       -0.0206
     15 C         145.0386  140.8300  162.7398 C.ar    1  UNL1       -0.0042
     16 C         145.0106  142.3186  162.9220 C.ar    1  UNL1        0.0009
     17 C         143.7499  143.0841  162.6488 C.ar    1  UNL1        0.0145
     18 C         142.5172  142.3610  162.1935 C.ar    1  UNL1        0.0490
     19 C         142.5451  140.8723  162.0112 C.ar    1  UNL1        0.0103
     20 C         139.9755  141.8826  167.1402 C.3     1  UNL1        0.0919
     21 C         140.1324  140.4197  167.4322 C.3     1  UNL1        0.0878
     22 C         141.4620  139.7539  167.2352 C.3     1  UNL1        0.0227
     23 N         138.9596  139.6226  167.9213 N.am    1  UNL1       -0.3011
     24 C         138.1680  138.7861  166.9601 C.2     1  UNL1        0.2458
     25 O         136.9952  137.9890  167.4491 O.2     1  UNL1       -0.2701
     26 H         138.7093  139.6484  168.8731 H       1  UNL1        0.1497
     27 C         138.5493  138.7468  165.5099 C.ar    1  UNL1        0.0534
     28 C         138.0539  139.8102  164.5751 C.ar    1  UNL1        0.0050
     29 C         138.4351  139.7709  163.1249 C.ar    1  UNL1        0.0068
     30 C         139.3117  138.6682  162.6094 C.ar    1  UNL1        0.0346
     31 BR        139.6930  138.6289  161.1593 Br      1  UNL1       -0.0490
     32 C         139.8071  137.6048  163.5443 C.ar    1  UNL1        0.0068
     33 C         139.4259  137.6442  164.9945 C.ar    1  UNL1        0.0050
@<TRIPOS>BOND
     1    13    14    1
     2    14    15   ar
     3    15    16   ar
     4    16    17   ar
     5    17    18   ar
     6    18     1    1
     7     1     2    1
     8     2     3    1
     9     3     4   am
    10     4     5    2
    11     4     6    1
    12     6     7    1
    13     7     8    1
    14     8     9    1
    15     9    20    1
    16    20    21    1
    17    21    22    1
    18    21    23    1
    19    23    24   am
    20    24    25    2
    21    24    27    1
    22    27    28   ar
    23    28    29   ar
    24    29    30   ar
    25    30    31    1
    26    30    32   ar
    27    32    33   ar
    28     9    10    1
    29    10    11    1
    30    18    19   ar
    31    19    14   ar
    32     6     1    1
    33    33    27   ar
    34    11     6    1
    35     3    12    1
    36    23    26    1
@<TRIPOS>MOLECULE
*****
 33 36 0 0 0
SMALL
GASTEIGER

@<TRIPOS>ATOM
      1 N         141.5879  143.3916  161.5342 N.pl3   1  UNL1       -0.2859
      2 C         141.3451  144.7135  160.8679 C.3     1  UNL1        0.1875
      3 N         139.9913  144.6661  160.2236 N.am    1  UNL1       -0.2862
      4 C         139.3975  143.3150  160.4917 C.2     1  UNL1        0.2397
      5 O         138.0530  142.8357  160.0307 O.2     1  UNL1       -0.2734
      6 C         140.3842  142.5273  161.3016 C.3     1  UNL1        0.1304
      7 C         141.4643  141.8657  162.1052 C.3     1  UNL1        0.0444
      8 C         141.2797  140.4605  162.5963 C.3     1  UNL1        0.0743
      9 N         140.0150  139.7169  162.2839 N.3     1  UNL1       -0.2712
     10 C         138.9349  140.3785  161.4804 C.3     1  UNL1        0.0743
     11 C         139.1195  141.7837  160.9892 C.3     1  UNL1        0.0444
     12 H         139.5671  145.3940  159.7143 H       1  UNL1        0.1510
     13 C         144.2408  143.2047  165.9981 C.3     1  UNL1        0.0311
     14 C         144.1448  142.9090  164.5307 C.ar    1  UNL1       -0.0206
     15 C         145.2793  142.2241  163.8278 C.ar    1  UNL1       -0.0042
     16 C         145.1832  141.9284  162.3604 C.ar    1  UNL1        0.0009
     17 C         143.9527  142.3176  161.5958 C.ar    1  UNL1        0.0145
     18 C         142.8184  143.0024  162.2987 C.ar    1  UNL1        0.0490
     19 C         142.9144  143.2981  163.7662 C.ar    1  UNL1        0.0103
     20 C         139.8304  138.3116  162.7751 C.3     1  UNL1        0.0919
     21 C         140.2032  137.9543  164.1834 C.3     1  UNL1        0.0878
     22 C         141.6427  137.9690  164.6049 C.3     1  UNL1        0.0227
     23 N         139.1365  137.5823  165.1702 N.am    1  UNL1       -0.3011
     24 C         138.3700  138.6548  165.8860 C.2     1  UNL1        0.2458
     25 O         137.3034  138.2827  166.8728 O.2     1  UNL1       -0.2701
     26 H         138.9395  136.6342  165.3481 H       1  UNL1        0.1497
     27 C         138.6702  140.0992  165.6150 C.ar    1  UNL1        0.0534
     28 C         137.7737  140.8952  164.7136 C.ar    1  UNL1        0.0050
     29 C         138.0739  142.3397  164.4425 C.ar    1  UNL1        0.0068
     30 C         139.2706  142.9881  165.0730 C.ar    1  UNL1        0.0346
     31 BR        139.5708  144.4325  164.8020 Br      1  UNL1       -0.0490
     32 C         140.1671  142.1920  165.9744 C.ar    1  UNL1        0.0068
     33 C         139.8669  140.7476  166.2454 C.ar    1  UNL1        0.0050
@<TRIPOS>BOND
     1    13    14    1
     2    14    15   ar
     3    15    16   ar
     4    16    17   ar
     5    17    18   ar
     6    18     1    1
     7     1     2    1
     8     2     3    1
     9     3     4   am
    10     4     5    2
    11     4     6    1
    12     6     7    1
    13     7     8    1
    14     8     9    1
    15     9    20    1
    16    20    21    1
    17    21    22    1
    18    21    23    1
    19    23    24   am
    20    24    25    2
    21    24    27    1
    22    27    28   ar
    23    28    29   ar
    24    29    30   ar
    25    30    31    1
    26    30    32   ar
    27    32    33   ar
    28     9    10    1
    29    10    11    1
    30    18    19   ar
    31    19    14   ar
    32     6     1    1
    33    33    27   ar
    34    11     6    1
    35     3    12    1
    36    23    26    1
