@<TRIPOS>MOLECULE
*****
 31 35 0 0 0
SMALL
GASTEIGER

@<TRIPOS>ATOM
      1 C         139.4015  141.0196  165.8332 C.ar    1  UNL1        0.0906
      2 C         140.1117  141.6130  167.0137 C.ar    1  UNL1        0.1496
      3 O         140.1965  143.0961  166.8061 O.2     1  UNL1       -0.4534
      4 C         139.5386  143.4194  165.4974 C.ar    1  UNL1        0.1454
      5 C         139.3236  144.7165  164.7755 C.ar    1  UNL1        0.0406
      6 C         138.6172  144.7303  163.4523 C.ar    1  UNL1        0.0395
      7 C         138.1258  143.4469  162.8511 C.ar    1  UNL1        0.1311
      8 O         137.4194  143.4607  161.5279 O.3     1  UNL1       -0.5058
      9 C         138.3409  142.1498  163.5730 C.ar    1  UNL1        0.0308
     10 C         139.0473  142.1360  164.8961 C.ar    1  UNL1        0.0421
     11 H         137.2850  144.2710  161.0769 H       1  UNL1        0.2922
     12 C         140.6437  140.8561  168.1944 C.ar    1  UNL1        0.0347
     13 C         141.9792  140.1783  168.1110 C.ar    1  UNL1        0.0030
     14 C         142.5112  139.4215  169.2917 C.ar    1  UNL1        0.0001
     15 C         141.7078  139.3424  170.5559 C.ar    1  UNL1        0.0000
     16 C         140.3723  140.0202  170.6393 C.ar    1  UNL1        0.0001
     17 C         139.8402  140.7770  169.4586 C.ar    1  UNL1        0.0030
     18 C         139.7379  137.2537  164.6268 C.3     1  UNL1        0.1109
     19 N         140.0408  138.7082  164.8338 N.am    1  UNL1       -0.2991
     20 C         139.0986  139.5652  165.6262 C.2     1  UNL1        0.2490
     21 O         137.8535  138.9676  166.2116 O.2     1  UNL1       -0.2700
     22 H         140.8580  139.1003  164.4496 H       1  UNL1        0.1498
     23 C         137.8495  140.8664  162.9717 C.3     1  UNL1        0.1023
     24 N         138.7523  140.0586  162.0871 N.3     1  UNL1       -0.2687
     25 C         138.4272  138.7282  161.4751 C.3     1  UNL1        0.0726
     26 C         139.6125  138.2867  160.6689 C.3     1  UNL1        0.0235
     27 C         140.6703  139.3443  160.7826 C.3     1  UNL1        0.0707
     28 C         141.8561  140.2624  160.7565 C.3     1  UNL1        0.1458
     29 O         142.5823  139.2991  159.8650 O.3     1  UNL1       -0.3535
     30 C         141.3964  138.3810  159.8911 C.3     1  UNL1        0.1458
     31 C         140.1386  140.4394  161.6591 C.3     1  UNL1        0.0772
@<TRIPOS>BOND
     1    18    19    1
     2    19    20   am
     3    20    21    2
     4    20     1    1
     5     1     2   ar
     6     2    12    1
     7    12    13   ar
     8    13    14   ar
     9    14    15   ar
    10    15    16   ar
    11    16    17   ar
    12     2     3   ar
    13     3     4   ar
    14     4     5   ar
    15     5     6   ar
    16     6     7   ar
    17     7     8    1
    18     7     9   ar
    19     9    23    1
    20    23    24    1
    21    24    25    1
    22    25    26    1
    23    26    27    1
    24    27    28    1
    25    28    29    1
    26    29    30    1
    27    27    31    1
    28     9    10   ar
    29    10     1   ar
    30    17    12   ar
    31    10     4   ar
    32    31    24    1
    33    30    27    1
    34    19    22    1
    35     8    11    1
@<TRIPOS>MOLECULE
*****
 31 35 0 0 0
SMALL
GASTEIGER

@<TRIPOS>ATOM
      1 C         141.4544  142.9362  165.2192 C.ar    1  UNL1        0.0906
      2 C         140.3217  143.0730  166.1930 C.ar    1  UNL1        0.1496
      3 O         139.2989  143.9886  165.5885 O.2     1  UNL1       -0.4534
      4 C         139.7994  144.4177  164.2411 C.ar    1  UNL1        0.1454
      5 C         139.2142  145.3166  163.1926 C.ar    1  UNL1        0.0406
      6 C         139.9613  145.5651  161.9159 C.ar    1  UNL1        0.0395
      7 C         141.2935  144.9147  161.6876 C.ar    1  UNL1        0.1311
      8 O         142.0405  145.1633  160.4108 O.3     1  UNL1       -0.5058
      9 C         141.8787  144.0158  162.7361 C.ar    1  UNL1        0.0308
     10 C         141.1316  143.7672  164.0129 C.ar    1  UNL1        0.0421
     11 H         141.6750  145.7248  159.7558 H       1  UNL1        0.2922
     12 C         140.2283  142.4104  167.5355 C.ar    1  UNL1        0.0347
     13 C         140.2911  143.2369  168.7857 C.ar    1  UNL1        0.0030
     14 C         140.1976  142.5744  170.1282 C.ar    1  UNL1        0.0001
     15 C         140.0414  141.0854  170.2205 C.ar    1  UNL1        0.0000
     16 C         139.9786  140.2590  168.9703 C.ar    1  UNL1        0.0001
     17 C         140.0721  140.9215  167.6278 C.ar    1  UNL1        0.0030
     18 C         143.9515  139.8516  165.1878 C.3     1  UNL1        0.1109
     19 N         142.7133  140.6750  164.9901 N.am    1  UNL1       -0.2991
     20 C         142.6926  142.1129  165.4169 C.2     1  UNL1        0.2490
     21 O         143.9101  142.7273  166.0415 O.2     1  UNL1       -0.2700
     22 H         141.9142  140.2716  164.5801 H       1  UNL1        0.1498
     23 C         143.2109  143.3653  162.5079 C.3     1  UNL1        0.1023
     24 N         143.2802  141.9590  161.9909 N.3     1  UNL1       -0.2687
     25 C         144.5297  141.1530  161.7926 C.3     1  UNL1        0.0726
     26 C         144.1339  139.8075  161.2606 C.3     1  UNL1        0.0235
     27 C         142.6398  139.7818  161.1301 C.3     1  UNL1        0.0707
     28 C         141.1749  139.5366  160.9204 C.3     1  UNL1        0.1458
     29 O         141.4771  138.1515  160.4302 O.3     1  UNL1       -0.3535
     30 C         142.9419  138.3969  160.6400 C.3     1  UNL1        0.1458
     31 C         142.1122  141.1116  161.5815 C.3     1  UNL1        0.0772
@<TRIPOS>BOND
     1    18    19    1
     2    19    20   am
     3    20    21    2
     4    20     1    1
     5     1     2   ar
     6     2    12    1
     7    12    13   ar
     8    13    14   ar
     9    14    15   ar
    10    15    16   ar
    11    16    17   ar
    12     2     3   ar
    13     3     4   ar
    14     4     5   ar
    15     5     6   ar
    16     6     7   ar
    17     7     8    1
    18     7     9   ar
    19     9    23    1
    20    23    24    1
    21    24    25    1
    22    25    26    1
    23    26    27    1
    24    27    28    1
    25    28    29    1
    26    29    30    1
    27    27    31    1
    28     9    10   ar
    29    10     1   ar
    30    17    12   ar
    31    10     4   ar
    32    31    24    1
    33    30    27    1
    34    19    22    1
    35     8    11    1
@<TRIPOS>MOLECULE
*****
 31 35 0 0 0
SMALL
GASTEIGER

@<TRIPOS>ATOM
      1 C         140.3504  141.3230  165.5441 C.ar    1  UNL1        0.0906
      2 C         140.5960  142.0097  166.8549 C.ar    1  UNL1        0.1496
      3 O         139.9232  143.3496  166.8093 O.2     1  UNL1       -0.4534
      4 C         139.2620  143.4910  165.4704 C.ar    1  UNL1        0.1454
      5 C         138.4535  144.5985  164.8622 C.ar    1  UNL1        0.0406
      6 C         137.9091  144.4534  163.4720 C.ar    1  UNL1        0.0395
      7 C         138.1732  143.2009  162.6901 C.ar    1  UNL1        0.1311
      8 O         137.6287  143.0559  161.2999 O.3     1  UNL1       -0.5058
      9 C         138.9816  142.0934  163.2983 C.ar    1  UNL1        0.0308
     10 C         139.5260  142.2385  164.6884 C.ar    1  UNL1        0.0421
     11 H         137.1237  143.7477  160.9200 H       1  UNL1        0.2922
     12 C         141.3770  141.4540  168.0086 C.ar    1  UNL1        0.0347
     13 C         142.6001  142.1697  168.5004 C.ar    1  UNL1        0.0030
     14 C         143.3812  141.6141  169.6541 C.ar    1  UNL1        0.0001
     15 C         142.9392  140.3427  170.3161 C.ar    1  UNL1        0.0000
     16 C         141.7162  139.6270  169.8244 C.ar    1  UNL1        0.0001
     17 C         140.9351  140.1827  168.6706 C.ar    1  UNL1        0.0030
     18 C         142.6421  138.4488  164.0482 C.3     1  UNL1        0.1109
     19 N         142.1497  139.8117  164.4354 N.am    1  UNL1       -0.2991
     20 C         140.8429  139.9601  165.1569 C.2     1  UNL1        0.2490
     21 O         140.0287  138.7455  165.4911 O.2     1  UNL1       -0.2700
     22 H         142.6841  140.6089  164.2160 H       1  UNL1        0.1498
     23 C         139.2456  140.8409  162.5163 C.3     1  UNL1        0.1023
     24 N         140.5081  140.7076  161.7174 N.3     1  UNL1       -0.2687
     25 C         141.5438  141.7747  161.5206 C.3     1  UNL1        0.0726
     26 C         142.6324  141.2105  160.6566 C.3     1  UNL1        0.0235
     27 C         142.2696  139.7946  160.3193 C.3     1  UNL1        0.0707
     28 C         142.1086  138.3754  159.8613 C.3     1  UNL1        0.1458
     29 O         143.4124  138.4652  159.1249 O.3     1  UNL1       -0.3535
     30 C         143.5732  139.8844  159.5830 C.3     1  UNL1        0.1458
     31 C         140.9566  139.4838  160.9749 C.3     1  UNL1        0.0772
@<TRIPOS>BOND
     1    18    19    1
     2    19    20   am
     3    20    21    2
     4    20     1    1
     5     1     2   ar
     6     2    12    1
     7    12    13   ar
     8    13    14   ar
     9    14    15   ar
    10    15    16   ar
    11    16    17   ar
    12     2     3   ar
    13     3     4   ar
    14     4     5   ar
    15     5     6   ar
    16     6     7   ar
    17     7     8    1
    18     7     9   ar
    19     9    23    1
    20    23    24    1
    21    24    25    1
    22    25    26    1
    23    26    27    1
    24    27    28    1
    25    28    29    1
    26    29    30    1
    27    27    31    1
    28     9    10   ar
    29    10     1   ar
    30    17    12   ar
    31    10     4   ar
    32    31    24    1
    33    30    27    1
    34    19    22    1
    35     8    11    1
@<TRIPOS>MOLECULE
*****
 31 35 0 0 0
SMALL
GASTEIGER

@<TRIPOS>ATOM
      1 C         140.1930  141.5675  165.6056 C.ar    1  UNL1        0.0906
      2 C         140.6822  140.9794  166.8959 C.ar    1  UNL1        0.1496
      3 O         140.4157  139.5037  166.8630 O.2     1  UNL1       -0.4534
      4 C         139.7618  139.1797  165.5525 C.ar    1  UNL1        0.1454
      5 C         139.2739  137.8880  164.9664 C.ar    1  UNL1        0.0406
      6 C         138.6484  137.8720  163.6032 C.ar    1  UNL1        0.0395
      7 C         138.5107  139.1476  162.8261 C.ar    1  UNL1        0.1311
      8 O         137.8852  139.1314  161.4628 O.3     1  UNL1       -0.5058
      9 C         138.9986  140.4392  163.4121 C.ar    1  UNL1        0.0308
     10 C         139.6241  140.4553  164.7754 C.ar    1  UNL1        0.0421
     11 H         137.5804  138.3245  161.0967 H       1  UNL1        0.2922
     12 C         141.3250  141.7345  168.0213 C.ar    1  UNL1        0.0347
     13 C         142.7782  141.5273  168.3299 C.ar    1  UNL1        0.0030
     14 C         143.4210  142.2823  169.4554 C.ar    1  UNL1        0.0001
     15 C         142.6107  143.2446  170.2723 C.ar    1  UNL1        0.0000
     16 C         141.1575  143.4518  169.9637 C.ar    1  UNL1        0.0001
     17 C         140.5147  142.6967  168.8382 C.ar    1  UNL1        0.0030
     18 C         141.4710  144.9590  163.9886 C.3     1  UNL1        0.1109
     19 N         141.4033  143.5126  164.3799 N.am    1  UNL1       -0.2991
     20 C         140.2607  143.0140  165.2143 C.2     1  UNL1        0.2490
     21 O         139.1860  143.9620  165.6571 O.2     1  UNL1       -0.2700
     22 H         142.1088  142.8904  164.0892 H       1  UNL1        0.1498
     23 C         138.8610  141.7148  162.6350 C.3     1  UNL1        0.1023
     24 N         139.9732  142.1699  161.7374 N.3     1  UNL1       -0.2687
     25 C         141.2145  141.3944  161.4089 C.3     1  UNL1        0.0726
     26 C         142.0480  142.2256  160.4791 C.3     1  UNL1        0.0235
     27 C         141.3218  143.5149  160.2330 C.3     1  UNL1        0.0707
     28 C         140.7786  144.8594  159.8495 C.3     1  UNL1        0.1458
     29 O         141.9908  145.1072  159.0014 O.3     1  UNL1       -0.3535
     30 C         142.5339  143.7627  159.3849 C.3     1  UNL1        0.1458
     31 C         140.0395  143.4804  161.0106 C.3     1  UNL1        0.0772
@<TRIPOS>BOND
     1    18    19    1
     2    19    20   am
     3    20    21    2
     4    20     1    1
     5     1     2   ar
     6     2    12    1
     7    12    13   ar
     8    13    14   ar
     9    14    15   ar
    10    15    16   ar
    11    16    17   ar
    12     2     3   ar
    13     3     4   ar
    14     4     5   ar
    15     5     6   ar
    16     6     7   ar
    17     7     8    1
    18     7     9   ar
    19     9    23    1
    20    23    24    1
    21    24    25    1
    22    25    26    1
    23    26    27    1
    24    27    28    1
    25    28    29    1
    26    29    30    1
    27    27    31    1
    28     9    10   ar
    29    10     1   ar
    30    17    12   ar
    31    10     4   ar
    32    31    24    1
    33    30    27    1
    34    19    22    1
    35     8    11    1
@<TRIPOS>MOLECULE
*****
 31 35 0 0 0
SMALL
GASTEIGER

@<TRIPOS>ATOM
      1 C         142.3223  142.8631  165.1503 C.ar    1  UNL1        0.0906
      2 C         141.5067  142.6074  166.3829 C.ar    1  UNL1        0.1496
      3 O         140.1783  143.2817  166.2077 O.2     1  UNL1       -0.4534
      4 C         140.1730  143.9541  164.8669 C.ar    1  UNL1        0.1454
      5 C         139.1327  144.7685  164.1566 C.ar    1  UNL1        0.0406
      6 C         139.4175  145.3242  162.7928 C.ar    1  UNL1        0.0395
      7 C         140.7426  145.0655  162.1393 C.ar    1  UNL1        0.1311
      8 O         141.0274  145.6212  160.7754 O.3     1  UNL1       -0.5058
      9 C         141.7829  144.2510  162.8495 C.ar    1  UNL1        0.0308
     10 C         141.4981  143.6954  164.2133 C.ar    1  UNL1        0.0421
     11 H         140.3775  146.1299  160.3317 H       1  UNL1        0.2922
     12 C         141.9429  141.8164  167.5804 C.ar    1  UNL1        0.0347
     13 C         141.3743  140.4499  167.8243 C.ar    1  UNL1        0.0030
     14 C         141.8105  139.6589  169.0218 C.ar    1  UNL1        0.0001
     15 C         142.8153  140.2343  169.9754 C.ar    1  UNL1        0.0000
     16 C         143.3839  141.6007  169.7314 C.ar    1  UNL1        0.0001
     17 C         142.9477  142.3917  168.5339 C.ar    1  UNL1        0.0030
     18 C         145.3396  140.4760  164.1763 C.3     1  UNL1        0.1109
     19 N         143.9446  140.9665  164.4279 N.am    1  UNL1       -0.2991
     20 C         143.7174  142.3726  164.8987 C.2     1  UNL1        0.2490
     21 O         144.8852  143.2879  165.1179 O.2     1  UNL1       -0.2700
     22 H         143.1781  140.3657  164.2840 H       1  UNL1        0.1498
     23 C         143.1080  143.9923  162.1959 C.3     1  UNL1        0.1023
     24 N         143.2042  143.0271  161.0518 N.3     1  UNL1       -0.2687
     25 C         143.0386  143.3624  159.5991 C.3     1  UNL1        0.0726
     26 C         143.2149  142.0997  158.8088 C.3     1  UNL1        0.0235
     27 C         143.4896  140.9840  159.7731 C.3     1  UNL1        0.0707
     28 C         143.7759  139.7311  160.5465 C.3     1  UNL1        0.1458
     29 O         143.8280  138.9523  159.2655 O.3     1  UNL1       -0.3535
     30 C         143.5416  140.2053  158.4922 C.3     1  UNL1        0.1458
     31 C         143.4830  141.5572  161.1593 C.3     1  UNL1        0.0772
@<TRIPOS>BOND
     1    18    19    1
     2    19    20   am
     3    20    21    2
     4    20     1    1
     5     1     2   ar
     6     2    12    1
     7    12    13   ar
     8    13    14   ar
     9    14    15   ar
    10    15    16   ar
    11    16    17   ar
    12     2     3   ar
    13     3     4   ar
    14     4     5   ar
    15     5     6   ar
    16     6     7   ar
    17     7     8    1
    18     7     9   ar
    19     9    23    1
    20    23    24    1
    21    24    25    1
    22    25    26    1
    23    26    27    1
    24    27    28    1
    25    28    29    1
    26    29    30    1
    27    27    31    1
    28     9    10   ar
    29    10     1   ar
    30    17    12   ar
    31    10     4   ar
    32    31    24    1
    33    30    27    1
    34    19    22    1
    35     8    11    1
@<TRIPOS>MOLECULE
*****
 31 35 0 0 0
SMALL
GASTEIGER

@<TRIPOS>ATOM
      1 C         141.6373  140.8091  165.5303 C.ar    1  UNL1        0.0906
      2 C         141.1027  140.7468  166.9304 C.ar    1  UNL1        0.1496
      3 O         140.0078  139.7221  166.9633 O.2     1  UNL1       -0.4534
      4 C         139.8656  139.1511  165.5836 C.ar    1  UNL1        0.1454
      5 C         138.9492  138.1063  165.0192 C.ar    1  UNL1        0.0406
      6 C         139.0400  137.7332  163.5692 C.ar    1  UNL1        0.0395
      7 C         140.0471  138.4050  162.6836 C.ar    1  UNL1        0.1311
      8 O         140.1378  138.0319  161.2335 O.3     1  UNL1       -0.5058
      9 C         140.9634  139.4499  163.2479 C.ar    1  UNL1        0.0308
     10 C         140.8727  139.8229  164.6979 C.ar    1  UNL1        0.0421
     11 H         139.5653  137.3792  160.8810 H       1  UNL1        0.2922
     12 C         141.5794  141.5655  168.0934 C.ar    1  UNL1        0.0347
     13 C         140.6845  142.6095  168.6927 C.ar    1  UNL1        0.0030
     14 C         141.1612  143.4281  169.8557 C.ar    1  UNL1        0.0001
     15 C         142.5328  143.2028  170.4194 C.ar    1  UNL1        0.0000
     16 C         143.4277  142.1588  169.8202 C.ar    1  UNL1        0.0001
     17 C         142.9510  141.3402  168.6572 C.ar    1  UNL1        0.0030
     18 C         143.5597  144.0242  164.2196 C.3     1  UNL1        0.1109
     19 N         142.4546  143.1323  164.7026 N.am    1  UNL1       -0.2991
     20 C         142.7424  141.7010  165.0473 C.2     1  UNL1        0.2490
     21 O         144.1352  141.1618  164.9090 O.2     1  UNL1       -0.2700
     22 H         141.5405  143.4863  164.7934 H       1  UNL1        0.1498
     23 C         141.9705  140.1217  162.3622 C.3     1  UNL1        0.1023
     24 N         141.7154  141.5100  161.8549 N.3     1  UNL1       -0.2687
     25 C         142.6854  142.3617  161.0907 C.3     1  UNL1        0.0726
     26 C         142.0149  143.6685  160.7862 C.3     1  UNL1        0.0235
     27 C         140.6306  143.6246  161.3622 C.3     1  UNL1        0.0707
     28 C         139.2234  143.7983  161.8517 C.3     1  UNL1        0.1458
     29 O         139.1879  145.1765  161.2605 O.3     1  UNL1       -0.3535
     30 C         140.5951  145.0026  160.7710 C.3     1  UNL1        0.1458
     31 C         140.4455  142.2905  162.0227 C.3     1  UNL1        0.0772
@<TRIPOS>BOND
     1    18    19    1
     2    19    20   am
     3    20    21    2
     4    20     1    1
     5     1     2   ar
     6     2    12    1
     7    12    13   ar
     8    13    14   ar
     9    14    15   ar
    10    15    16   ar
    11    16    17   ar
    12     2     3   ar
    13     3     4   ar
    14     4     5   ar
    15     5     6   ar
    16     6     7   ar
    17     7     8    1
    18     7     9   ar
    19     9    23    1
    20    23    24    1
    21    24    25    1
    22    25    26    1
    23    26    27    1
    24    27    28    1
    25    28    29    1
    26    29    30    1
    27    27    31    1
    28     9    10   ar
    29    10     1   ar
    30    17    12   ar
    31    10     4   ar
    32    31    24    1
    33    30    27    1
    34    19    22    1
    35     8    11    1
@<TRIPOS>MOLECULE
*****
 31 35 0 0 0
SMALL
GASTEIGER

@<TRIPOS>ATOM
      1 C         141.0582  142.6284  165.3991 C.ar    1  UNL1        0.0906
      2 C         141.6296  142.2464  166.7323 C.ar    1  UNL1        0.1496
      3 O         143.1197  142.1525  166.5882 O.2     1  UNL1       -0.4534
      4 C         143.4692  142.4766  165.1659 C.ar    1  UNL1        0.1454
      5 C         144.7830  142.5418  164.4450 C.ar    1  UNL1        0.0406
      6 C         144.8226  142.9011  162.9893 C.ar    1  UNL1        0.0395
      7 C         143.5485  143.1953  162.2544 C.ar    1  UNL1        0.1311
      8 O         143.5882  143.5546  160.7986 O.3     1  UNL1       -0.5058
      9 C         142.2347  143.1300  162.9752 C.ar    1  UNL1        0.0308
     10 C         142.1950  142.7707  164.4310 C.ar    1  UNL1        0.0421
     11 H         144.4089  143.5954  160.3483 H       1  UNL1        0.2922
     12 C         140.8482  142.0012  167.9890 C.ar    1  UNL1        0.0347
     13 C         140.7460  143.0760  169.0303 C.ar    1  UNL1        0.0030
     14 C         139.9645  142.8308  170.2870 C.ar    1  UNL1        0.0001
     15 C         139.2853  141.5109  170.5024 C.ar    1  UNL1        0.0000
     16 C         139.3875  140.4362  169.4611 C.ar    1  UNL1        0.0001
     17 C         140.1689  140.6813  168.2044 C.ar    1  UNL1        0.0030
     18 C         137.5935  144.4252  164.6791 C.3     1  UNL1        0.1109
     19 N         139.0468  144.2213  164.9897 N.am    1  UNL1       -0.2991
     20 C         139.6049  142.8324  165.0885 C.2     1  UNL1        0.2490
     21 O         138.7097  141.6477  164.8766 O.2     1  UNL1       -0.2700
     22 H         139.6343  144.9989  165.1287 H       1  UNL1        0.1498
     23 C         140.9606  143.4241  162.2403 C.3     1  UNL1        0.1023
     24 N         140.0468  142.3023  161.8448 N.3     1  UNL1       -0.2687
     25 C         138.6098  142.4379  161.4363 C.3     1  UNL1        0.0726
     26 C         138.0844  141.0673  161.1273 C.3     1  UNL1        0.0235
     27 C         139.1967  140.0846  161.3447 C.3     1  UNL1        0.0707
     28 C         140.1523  138.9386  161.4976 C.3     1  UNL1        0.1458
     29 O         139.0758  137.9843  161.0729 O.3     1  UNL1       -0.3535
     30 C         138.1202  139.1304  160.9200 C.3     1  UNL1        0.1458
     31 C         140.4095  140.8479  161.7882 C.3     1  UNL1        0.0772
@<TRIPOS>BOND
     1    18    19    1
     2    19    20   am
     3    20    21    2
     4    20     1    1
     5     1     2   ar
     6     2    12    1
     7    12    13   ar
     8    13    14   ar
     9    14    15   ar
    10    15    16   ar
    11    16    17   ar
    12     2     3   ar
    13     3     4   ar
    14     4     5   ar
    15     5     6   ar
    16     6     7   ar
    17     7     8    1
    18     7     9   ar
    19     9    23    1
    20    23    24    1
    21    24    25    1
    22    25    26    1
    23    26    27    1
    24    27    28    1
    25    28    29    1
    26    29    30    1
    27    27    31    1
    28     9    10   ar
    29    10     1   ar
    30    17    12   ar
    31    10     4   ar
    32    31    24    1
    33    30    27    1
    34    19    22    1
    35     8    11    1
@<TRIPOS>MOLECULE
*****
 31 35 0 0 0
SMALL
GASTEIGER

@<TRIPOS>ATOM
      1 C         142.6504  140.8600  165.6497 C.ar    1  UNL1        0.0906
      2 C         142.9306  142.1091  166.4315 C.ar    1  UNL1        0.1496
      3 O         143.8820  142.9513  165.6343 O.2     1  UNL1       -0.4534
      4 C         144.1898  142.2227  164.3597 C.ar    1  UNL1        0.1454
      5 C         145.0649  142.5691  163.1918 C.ar    1  UNL1        0.0406
      6 C         145.1787  141.6231  162.0333 C.ar    1  UNL1        0.0395
      7 C         144.4175  140.3306  162.0428 C.ar    1  UNL1        0.1311
      8 O         144.5314  139.3846  160.8843 O.3     1  UNL1       -0.5058
      9 C         143.5425  139.9842  163.2108 C.ar    1  UNL1        0.0308
     10 C         143.4286  140.9302  164.3693 C.ar    1  UNL1        0.0421
     11 H         145.0781  139.6010  160.1547 H       1  UNL1        0.2922
     12 C         142.3596  142.4553  167.7747 C.ar    1  UNL1        0.0347
     13 C         140.9113  142.8243  167.9015 C.ar    1  UNL1        0.0030
     14 C         140.3404  143.1705  169.2447 C.ar    1  UNL1        0.0001
     15 C         141.2177  143.1476  170.4611 C.ar    1  UNL1        0.0000
     16 C         142.6660  142.7786  170.3343 C.ar    1  UNL1        0.0001
     17 C         143.2370  142.4324  168.9911 C.ar    1  UNL1        0.0030
     18 C         139.3823  138.6745  166.1918 C.3     1  UNL1        0.1109
     19 N         140.2827  139.7968  165.7677 N.am    1  UNL1       -0.2991
     20 C         141.7500  139.7378  166.0738 C.2     1  UNL1        0.2490
     21 O         142.3168  138.5565  166.8039 O.2     1  UNL1       -0.2700
     22 H         139.9106  140.5721  165.2885 H       1  UNL1        0.1498
     23 C         142.7813  138.6917  163.2203 C.3     1  UNL1        0.1023
     24 N         141.3387  138.6679  162.8102 N.3     1  UNL1       -0.2687
     25 C         140.4143  137.4902  162.9052 C.3     1  UNL1        0.0726
     26 C         139.0715  137.9120  162.3868 C.3     1  UNL1        0.0235
     27 C         139.1658  139.3503  161.9713 C.3     1  UNL1        0.0707
     28 C         139.0333  140.7670  161.4969 C.3     1  UNL1        0.1458
     29 O         137.5936  140.5185  161.1568 O.3     1  UNL1       -0.3535
     30 C         137.7262  139.1017  161.6313 C.3     1  UNL1        0.1458
     31 C         140.5670  139.8174  162.2331 C.3     1  UNL1        0.0772
@<TRIPOS>BOND
     1    18    19    1
     2    19    20   am
     3    20    21    2
     4    20     1    1
     5     1     2   ar
     6     2    12    1
     7    12    13   ar
     8    13    14   ar
     9    14    15   ar
    10    15    16   ar
    11    16    17   ar
    12     2     3   ar
    13     3     4   ar
    14     4     5   ar
    15     5     6   ar
    16     6     7   ar
    17     7     8    1
    18     7     9   ar
    19     9    23    1
    20    23    24    1
    21    24    25    1
    22    25    26    1
    23    26    27    1
    24    27    28    1
    25    28    29    1
    26    29    30    1
    27    27    31    1
    28     9    10   ar
    29    10     1   ar
    30    17    12   ar
    31    10     4   ar
    32    31    24    1
    33    30    27    1
    34    19    22    1
    35     8    11    1
@<TRIPOS>MOLECULE
*****
 31 35 0 0 0
SMALL
GASTEIGER

@<TRIPOS>ATOM
      1 C         141.7445  142.4158  165.1685 C.ar    1  UNL1        0.0906
      2 C         141.2228  142.4189  166.5748 C.ar    1  UNL1        0.1496
      3 O         139.9543  143.2191  166.5968 O.2     1  UNL1       -0.4534
      4 C         139.6920  143.7105  165.2041 C.ar    1  UNL1        0.1454
      5 C         138.5886  144.5459  164.6257 C.ar    1  UNL1        0.0406
      6 C         138.5916  144.8849  163.1645 C.ar    1  UNL1        0.0395
      7 C         139.6981  144.3884  162.2818 C.ar    1  UNL1        0.1311
      8 O         139.7011  144.7274  160.8205 O.3     1  UNL1       -0.5058
      9 C         140.8015  143.5530  162.8601 C.ar    1  UNL1        0.0308
     10 C         140.7984  143.2141  164.3213 C.ar    1  UNL1        0.0421
     11 H         139.0118  145.2493  160.4592 H       1  UNL1        0.2922
     12 C         141.8581  141.7408  167.7524 C.ar    1  UNL1        0.0347
     13 C         141.4985  140.3232  168.0855 C.ar    1  UNL1        0.0030
     14 C         142.1338  139.6452  169.2630 C.ar    1  UNL1        0.0001
     15 C         143.1287  140.3847  170.1075 C.ar    1  UNL1        0.0000
     16 C         143.4883  141.8024  169.7744 C.ar    1  UNL1        0.0001
     17 C         142.8530  142.4804  168.5968 C.ar    1  UNL1        0.0030
     18 C         145.5156  141.8323  164.0780 C.3     1  UNL1        0.1109
     19 N         144.2670  142.5140  164.5537 N.am    1  UNL1       -0.2991
     20 C         142.9931  141.7341  164.6927 C.2     1  UNL1        0.2490
     21 O         142.9680  140.2727  164.3560 O.2     1  UNL1       -0.2700
     22 H         144.2835  143.4732  164.7747 H       1  UNL1        0.1498
     23 C         141.9079  143.0566  161.9774 C.3     1  UNL1        0.1023
     24 N         141.8140  141.6976  161.3495 N.3     1  UNL1       -0.2687
     25 C         140.7134  140.7012  161.5644 C.3     1  UNL1        0.0726
     26 C         141.0233  139.4841  160.7442 C.3     1  UNL1        0.0235
     27 C         142.3154  139.7283  160.0223 C.3     1  UNL1        0.0707
     28 C         143.5768  139.7569  159.2112 C.3     1  UNL1        0.1458
     29 O         143.2819  138.3764  158.7039 O.3     1  UNL1       -0.3535
     30 C         142.0204  138.3479  159.5151 C.3     1  UNL1        0.1458
     31 C         142.8040  141.0963  160.3964 C.3     1  UNL1        0.0772
@<TRIPOS>BOND
     1    18    19    1
     2    19    20   am
     3    20    21    2
     4    20     1    1
     5     1     2   ar
     6     2    12    1
     7    12    13   ar
     8    13    14   ar
     9    14    15   ar
    10    15    16   ar
    11    16    17   ar
    12     2     3   ar
    13     3     4   ar
    14     4     5   ar
    15     5     6   ar
    16     6     7   ar
    17     7     8    1
    18     7     9   ar
    19     9    23    1
    20    23    24    1
    21    24    25    1
    22    25    26    1
    23    26    27    1
    24    27    28    1
    25    28    29    1
    26    29    30    1
    27    27    31    1
    28     9    10   ar
    29    10     1   ar
    30    17    12   ar
    31    10     4   ar
    32    31    24    1
    33    30    27    1
    34    19    22    1
    35     8    11    1
