@<TRIPOS>MOLECULE
*****
 34 37 0 0 0
SMALL
GASTEIGER

@<TRIPOS>ATOM
      1 N         140.2782  142.6664  163.1250 N.ar    1  UNL1       -0.3133
      2 C         140.9426  143.2488  164.3372 C.ar    1  UNL1        0.0771
      3 C         140.7532  142.2902  165.4752 C.ar    1  UNL1        0.0229
      4 C         139.9716  141.1153  164.9664 C.ar    1  UNL1        0.0668
      5 C         139.4893  139.8638  165.6381 C.ar    1  UNL1        0.1300
      6 N         139.7829  139.6313  167.0905 N.pl3   1  UNL1       -0.3425
      7 N         138.7135  138.8449  164.8572 N.ar    1  UNL1       -0.2094
      8 C         138.4199  139.0774  163.4047 C.ar    1  UNL1        0.2014
      9 N         138.9022  140.3289  162.7331 N.ar    1  UNL1       -0.2065
     10 C         139.6780  141.3479  163.5139 C.ar    1  UNL1        0.1482
     11 H         140.2922  140.3001  167.6030 H       1  UNL1        0.1437
     12 H         139.4664  138.8099  167.5314 H       1  UNL1        0.1437
     13 C         141.2569  142.4741  166.8761 C.ar    1  UNL1        0.0029
     14 C         142.6638  142.0874  167.2241 C.ar    1  UNL1        0.0010
     15 C         143.1675  142.2713  168.6250 C.ar    1  UNL1        0.0126
     16 C         142.2643  142.8419  169.6779 C.ar    1  UNL1        0.0705
     17 CL        142.7680  143.0258  171.0788 Cl      1  UNL1       -0.0810
     18 C         140.8574  143.2285  169.3299 C.ar    1  UNL1        0.0522
     19 N         139.9542  143.7991  170.3828 N.pl3   1  UNL1       -0.3563
     20 C         140.3538  143.0446  167.9290 C.ar    1  UNL1        0.0150
     21 H         140.2848  143.9198  171.3022 H       1  UNL1        0.1424
     22 H         139.0308  144.0529  170.1544 H       1  UNL1        0.1424
     23 C         140.1139  144.5450  159.0392 C.3     1  UNL1        0.0749
     24 C         140.0548  145.4082  160.2645 C.3     1  UNL1        0.0216
     25 C         140.1096  144.7820  161.6264 C.3     1  UNL1        0.0243
     26 C         140.2234  143.2926  161.7631 C.3     1  UNL1        0.0870
     27 C         140.2825  142.4294  160.5377 C.3     1  UNL1        0.0243
     28 C         140.2277  143.0556  159.1758 C.3     1  UNL1        0.0216
     29 C         141.2551  145.8976  157.1371 C.2     1  UNL1        0.4017
     30 O         142.5060  145.9979  157.9589 O.2     1  UNL1       -0.2264
     31 N         140.0591  145.1712  157.6772 N.am    1  UNL1       -0.2723
     32 H         139.2381  145.1054  157.1378 H       1  UNL1        0.1527
     33 C         139.8904  147.0007  155.2212 C.3     1  UNL1        0.2573
     34 O         141.2003  146.5238  155.7751 O.3     1  UNL1       -0.4306
@<TRIPOS>BOND
     1    33    34    1
     2    34    29    1
     3    29    30    2
     4    29    31   am
     5    23    31    1
     6    23    24    1
     7    24    25    1
     8    25    26    1
     9    26     1    1
    10     1     2   ar
    11     2     3   ar
    12     3    13    1
    13    13    14   ar
    14    14    15   ar
    15    15    16   ar
    16    16    17    1
    17    16    18   ar
    18    18    19    1
    19    18    20   ar
    20     3     4   ar
    21     4     5   ar
    22     5     6    1
    23     5     7   ar
    24     7     8   ar
    25     8     9   ar
    26     9    10   ar
    27    26    27    1
    28    27    28    1
    29    28    23    1
    30    10     1   ar
    31    20    13   ar
    32    10     4   ar
    33    31    32    1
    34    19    21    1
    35    19    22    1
    36     6    11    1
    37     6    12    1
@<TRIPOS>MOLECULE
*****
 34 37 0 0 0
SMALL
GASTEIGER

@<TRIPOS>ATOM
      1 N         142.4104  139.9026  163.2377 N.ar    1  UNL1       -0.3133
      2 C         141.7268  139.3912  164.4711 C.ar    1  UNL1        0.0771
      3 C         142.0926  140.2941  165.6117 C.ar    1  UNL1        0.0229
      4 C         143.0022  141.3634  165.0833 C.ar    1  UNL1        0.0668
      5 C         143.6770  142.5261  165.7486 C.ar    1  UNL1        0.1300
      6 N         143.4806  142.7680  167.2159 N.pl3   1  UNL1       -0.3425
      7 N         144.5482  143.4469  164.9467 N.ar    1  UNL1       -0.2094
      8 C         144.7446  143.2049  163.4794 C.ar    1  UNL1        0.2014
      9 N         144.0698  142.0422  162.8141 N.ar    1  UNL1       -0.2065
     10 C         143.1986  141.1214  163.6160 C.ar    1  UNL1        0.1482
     11 H         142.9088  142.1637  167.7422 H       1  UNL1        0.1437
     12 H         143.9235  143.5312  167.6526 H       1  UNL1        0.1437
     13 C         141.6300  140.1525  167.0316 C.ar    1  UNL1        0.0029
     14 C         140.2606  140.6221  167.4246 C.ar    1  UNL1        0.0010
     15 C         139.7980  140.4805  168.8445 C.ar    1  UNL1        0.0126
     16 C         140.7047  139.8693  169.8713 C.ar    1  UNL1        0.0705
     17 CL        140.2421  139.7277  171.2911 Cl      1  UNL1       -0.0810
     18 C         142.0740  139.3998  169.4783 C.ar    1  UNL1        0.0522
     19 N         142.9807  138.7886  170.5051 N.pl3   1  UNL1       -0.3563
     20 C         142.5366  139.5413  168.0584 C.ar    1  UNL1        0.0150
     21 H         142.6771  138.6957  171.4370 H       1  UNL1        0.1424
     22 H         143.8795  138.4804  170.2471 H       1  UNL1        0.1424
     23 C         142.1432  138.0971  159.1244 C.3     1  UNL1        0.0749
     24 C         143.0732  137.5079  160.1431 C.3     1  UNL1        0.0216
     25 C         143.1622  138.1097  161.5142 C.3     1  UNL1        0.0243
     26 C         142.3213  139.3007  161.8666 C.3     1  UNL1        0.0870
     27 C         141.3913  139.8901  160.8478 C.3     1  UNL1        0.0243
     28 C         141.3023  139.2882  159.4767 C.3     1  UNL1        0.0216
     29 C         143.0085  137.9291  156.6804 C.2     1  UNL1        0.4017
     30 O         144.0519  138.9647  156.9786 O.2     1  UNL1       -0.2264
     31 N         142.0542  137.4953  157.7533 N.am    1  UNL1       -0.2723
     32 H         141.3694  136.8156  157.5575 H       1  UNL1        0.1527
     33 C         143.4744  135.9572  155.0542 C.3     1  UNL1        0.2573
     34 O         142.9194  137.3272  155.3093 O.3     1  UNL1       -0.4306
@<TRIPOS>BOND
     1    33    34    1
     2    34    29    1
     3    29    30    2
     4    29    31   am
     5    23    31    1
     6    23    24    1
     7    24    25    1
     8    25    26    1
     9    26     1    1
    10     1     2   ar
    11     2     3   ar
    12     3    13    1
    13    13    14   ar
    14    14    15   ar
    15    15    16   ar
    16    16    17    1
    17    16    18   ar
    18    18    19    1
    19    18    20   ar
    20     3     4   ar
    21     4     5   ar
    22     5     6    1
    23     5     7   ar
    24     7     8   ar
    25     8     9   ar
    26     9    10   ar
    27    26    27    1
    28    27    28    1
    29    28    23    1
    30    10     1   ar
    31    20    13   ar
    32    10     4   ar
    33    31    32    1
    34    19    21    1
    35    19    22    1
    36     6    11    1
    37     6    12    1
@<TRIPOS>MOLECULE
*****
 34 37 0 0 0
SMALL
GASTEIGER

@<TRIPOS>ATOM
      1 N         141.3084  142.4832  163.5871 N.ar    1  UNL1       -0.3133
      2 C         140.8976  142.8634  164.9787 C.ar    1  UNL1        0.0771
      3 C         141.4672  141.8476  165.9241 C.ar    1  UNL1        0.0229
      4 C         142.2301  140.8396  165.1167 C.ar    1  UNL1        0.0668
      5 C         143.0014  139.6148  165.5101 C.ar    1  UNL1        0.1300
      6 N         143.0996  139.2220  166.9545 N.pl3   1  UNL1       -0.3425
      7 N         143.6746  138.7827  164.4592 N.ar    1  UNL1       -0.2094
      8 C         143.5765  139.1755  163.0149 C.ar    1  UNL1        0.2014
      9 N         142.8052  140.4003  162.6215 N.ar    1  UNL1       -0.2065
     10 C         142.1320  141.2324  163.6724 C.ar    1  UNL1        0.1482
     11 H         142.6577  139.7681  167.6442 H       1  UNL1        0.1437
     12 H         143.6058  138.4181  167.2127 H       1  UNL1        0.1437
     13 C         141.3028  141.8410  167.4150 C.ar    1  UNL1        0.0029
     14 C         140.1484  141.1143  168.0391 C.ar    1  UNL1        0.0010
     15 C         139.9840  141.1077  169.5300 C.ar    1  UNL1        0.0126
     16 C         140.9739  141.8277  170.3970 C.ar    1  UNL1        0.0705
     17 CL        140.8095  141.8211  171.8879 Cl      1  UNL1       -0.0810
     18 C         142.1283  142.5544  169.7729 C.ar    1  UNL1        0.0522
     19 N         143.1182  143.2744  170.6398 N.pl3   1  UNL1       -0.3563
     20 C         142.2927  142.5610  168.2820 C.ar    1  UNL1        0.0150
     21 H         143.0103  143.2701  171.6184 H       1  UNL1        0.1424
     22 H         143.8758  143.7514  170.2302 H       1  UNL1        0.1424
     23 C         140.2553  144.7047  159.8180 C.3     1  UNL1        0.0749
     24 C         140.6683  145.4626  161.0448 C.3     1  UNL1        0.0216
     25 C         141.0194  144.7221  162.3011 C.3     1  UNL1        0.0243
     26 C         140.9574  143.2237  162.3308 C.3     1  UNL1        0.0870
     27 C         140.5443  142.4658  161.1040 C.3     1  UNL1        0.0243
     28 C         140.1933  143.2063  159.8476 C.3     1  UNL1        0.0216
     29 C         140.9903  145.9174  157.6411 C.2     1  UNL1        0.4017
     30 O         142.4274  145.6490  157.9768 O.2     1  UNL1       -0.2264
     31 N         139.9043  145.4452  158.5617 N.am    1  UNL1       -0.2723
     32 H         138.9610  145.6214  158.3413 H       1  UNL1        0.1527
     33 C         139.2068  146.7644  155.9524 C.3     1  UNL1        0.2573
     34 O         140.6392  146.6579  156.3847 O.3     1  UNL1       -0.4306
@<TRIPOS>BOND
     1    33    34    1
     2    34    29    1
     3    29    30    2
     4    29    31   am
     5    23    31    1
     6    23    24    1
     7    24    25    1
     8    25    26    1
     9    26     1    1
    10     1     2   ar
    11     2     3   ar
    12     3    13    1
    13    13    14   ar
    14    14    15   ar
    15    15    16   ar
    16    16    17    1
    17    16    18   ar
    18    18    19    1
    19    18    20   ar
    20     3     4   ar
    21     4     5   ar
    22     5     6    1
    23     5     7   ar
    24     7     8   ar
    25     8     9   ar
    26     9    10   ar
    27    26    27    1
    28    27    28    1
    29    28    23    1
    30    10     1   ar
    31    20    13   ar
    32    10     4   ar
    33    31    32    1
    34    19    21    1
    35    19    22    1
    36     6    11    1
    37     6    12    1
@<TRIPOS>MOLECULE
*****
 34 37 0 0 0
SMALL
GASTEIGER

@<TRIPOS>ATOM
      1 N         141.4382  142.4108  163.2065 N.ar    1  UNL1       -0.3133
      2 C         140.9813  142.7140  164.6027 C.ar    1  UNL1        0.0771
      3 C         141.5933  141.6986  165.5214 C.ar    1  UNL1        0.0229
      4 C         142.4286  140.7678  164.6932 C.ar    1  UNL1        0.0668
      5 C         143.2641  139.5763  165.0569 C.ar    1  UNL1        0.1300
      6 N         143.3599  139.1361  166.4876 N.pl3   1  UNL1       -0.3425
      7 N         144.0037  138.8251  163.9899 N.ar    1  UNL1       -0.2094
      8 C         143.9078  139.2653  162.5591 C.ar    1  UNL1        0.2014
      9 N         143.0723  140.4568  162.1954 N.ar    1  UNL1       -0.2065
     10 C         142.3327  141.2080  163.2624 C.ar    1  UNL1        0.1482
     11 H         142.8745  139.6292  167.1879 H       1  UNL1        0.1437
     12 H         143.9083  138.3541  166.7263 H       1  UNL1        0.1437
     13 C         141.4035  141.6265  167.0076 C.ar    1  UNL1        0.0029
     14 C         142.3832  142.3000  167.9224 C.ar    1  UNL1        0.0010
     15 C         142.1933  142.2280  169.4086 C.ar    1  UNL1        0.0126
     16 C         141.0239  141.4823  169.9801 C.ar    1  UNL1        0.0705
     17 CL        140.8341  141.4103  171.4663 Cl      1  UNL1       -0.0810
     18 C         140.0444  140.8088  169.0653 C.ar    1  UNL1        0.0522
     19 N         138.8750  140.0632  169.6368 N.pl3   1  UNL1       -0.3563
     20 C         140.2342  140.8809  167.5791 C.ar    1  UNL1        0.0150
     21 H         138.7504  140.0159  170.6122 H       1  UNL1        0.1424
     22 H         138.2320  139.6211  169.0364 H       1  UNL1        0.1424
     23 C         140.3217  144.7066  159.5007 C.3     1  UNL1        0.0749
     24 C         140.5570  145.4340  160.7912 C.3     1  UNL1        0.0216
     25 C         140.9292  144.6688  162.0264 C.3     1  UNL1        0.0243
     26 C         141.0661  143.1761  161.9713 C.3     1  UNL1        0.0870
     27 C         140.8307  142.4486  160.6807 C.3     1  UNL1        0.0243
     28 C         140.4586  143.2139  159.4454 C.3     1  UNL1        0.0216
     29 C         141.0219  146.0220  157.3724 C.2     1  UNL1        0.4017
     30 O         142.4663  145.8069  157.7146 O.2     1  UNL1       -0.2264
     31 N         139.9495  145.4719  158.2654 N.am    1  UNL1       -0.2723
     32 H         139.0015  145.6131  158.0408 H       1  UNL1        0.1527
     33 C         139.2073  147.0666  155.8342 C.3     1  UNL1        0.2573
     34 O         140.6496  146.7873  156.1371 O.3     1  UNL1       -0.4306
@<TRIPOS>BOND
     1    33    34    1
     2    34    29    1
     3    29    30    2
     4    29    31   am
     5    23    31    1
     6    23    24    1
     7    24    25    1
     8    25    26    1
     9    26     1    1
    10     1     2   ar
    11     2     3   ar
    12     3    13    1
    13    13    14   ar
    14    14    15   ar
    15    15    16   ar
    16    16    17    1
    17    16    18   ar
    18    18    19    1
    19    18    20   ar
    20     3     4   ar
    21     4     5   ar
    22     5     6    1
    23     5     7   ar
    24     7     8   ar
    25     8     9   ar
    26     9    10   ar
    27    26    27    1
    28    27    28    1
    29    28    23    1
    30    10     1   ar
    31    20    13   ar
    32    10     4   ar
    33    31    32    1
    34    19    21    1
    35    19    22    1
    36     6    11    1
    37     6    12    1
@<TRIPOS>MOLECULE
*****
 34 37 0 0 0
SMALL
GASTEIGER

@<TRIPOS>ATOM
      1 N         142.9943  138.9217  161.2036 N.ar    1  UNL1       -0.3133
      2 C         142.4102  137.8958  160.2781 C.ar    1  UNL1        0.0771
      3 C         142.4941  138.4319  158.8797 C.ar    1  UNL1        0.0229
      4 C         143.1300  139.7890  158.9409 C.ar    1  UNL1        0.0668
      5 C         143.4675  140.7883  157.8744 C.ar    1  UNL1        0.1300
      6 N         143.1584  140.4856  156.4381 N.pl3   1  UNL1       -0.3425
      7 N         144.1142  142.0903  158.2441 N.ar    1  UNL1       -0.2094
      8 C         144.4233  142.3930  159.6803 C.ar    1  UNL1        0.2014
      9 N         144.0858  141.3937  160.7469 N.ar    1  UNL1       -0.2065
     10 C         143.4392  140.0917  160.3771 C.ar    1  UNL1        0.1482
     11 H         142.7340  139.6310  156.1955 H       1  UNL1        0.1437
     12 H         143.3799  141.1414  155.7381 H       1  UNL1        0.1437
     13 C         142.0246  137.7334  157.6381 C.ar    1  UNL1        0.0029
     14 C         142.9969  136.9549  156.8022 C.ar    1  UNL1        0.0010
     15 C         142.5273  136.2564  155.5605 C.ar    1  UNL1        0.0126
     16 C         141.0855  136.3365  155.1547 C.ar    1  UNL1        0.0705
     17 CL        140.6159  135.6380  153.9131 Cl      1  UNL1       -0.0810
     18 C         140.1132  137.1150  155.9906 C.ar    1  UNL1        0.0522
     19 N         138.6714  137.1950  155.5847 N.pl3   1  UNL1       -0.3563
     20 C         140.5828  137.8134  157.2322 C.ar    1  UNL1        0.0150
     21 H         138.3632  136.7366  154.7698 H       1  UNL1        0.1424
     22 H         138.0333  137.7060  156.1333 H       1  UNL1        0.1424
     23 C         143.3495  138.5536  165.6745 C.3     1  UNL1        0.0749
     24 C         144.4517  139.1951  164.8848 C.3     1  UNL1        0.0216
     25 C         144.3333  139.3178  163.3945 C.3     1  UNL1        0.0243
     26 C         143.1127  138.7990  162.6939 C.3     1  UNL1        0.0870
     27 C         142.0104  138.1575  163.4836 C.3     1  UNL1        0.0243
     28 C         142.1289  138.0348  164.9739 C.3     1  UNL1        0.0216
     29 C         142.8312  139.4569  168.0547 C.2     1  UNL1        0.4017
     30 O         142.0760  140.6055  167.4543 O.2     1  UNL1       -0.2264
     31 N         143.4679  138.4310  167.1647 N.am    1  UNL1       -0.2723
     32 H         143.9636  137.6771  167.5588 H       1  UNL1        0.1527
     33 C         142.0761  140.1649  170.4377 C.3     1  UNL1        0.2573
     34 O         142.9496  139.3342  169.5450 O.3     1  UNL1       -0.4306
@<TRIPOS>BOND
     1    33    34    1
     2    34    29    1
     3    29    30    2
     4    29    31   am
     5    23    31    1
     6    23    24    1
     7    24    25    1
     8    25    26    1
     9    26     1    1
    10     1     2   ar
    11     2     3   ar
    12     3    13    1
    13    13    14   ar
    14    14    15   ar
    15    15    16   ar
    16    16    17    1
    17    16    18   ar
    18    18    19    1
    19    18    20   ar
    20     3     4   ar
    21     4     5   ar
    22     5     6    1
    23     5     7   ar
    24     7     8   ar
    25     8     9   ar
    26     9    10   ar
    27    26    27    1
    28    27    28    1
    29    28    23    1
    30    10     1   ar
    31    20    13   ar
    32    10     4   ar
    33    31    32    1
    34    19    21    1
    35    19    22    1
    36     6    11    1
    37     6    12    1
@<TRIPOS>MOLECULE
*****
 34 37 0 0 0
SMALL
GASTEIGER

@<TRIPOS>ATOM
      1 N         142.1029  141.4044  163.0299 N.ar    1  UNL1       -0.3133
      2 C         142.5135  141.8694  164.3956 C.ar    1  UNL1        0.0771
      3 C         141.5858  141.2458  165.3958 C.ar    1  UNL1        0.0229
      4 C         140.6018  140.3954  164.6483 C.ar    1  UNL1        0.0668
      5 C         139.4562  139.5446  165.1102 C.ar    1  UNL1        0.1300
      6 N         139.1365  139.4466  166.5725 N.pl3   1  UNL1       -0.3425
      7 N         138.6301  138.7917  164.1098 N.ar    1  UNL1       -0.2094
      8 C         138.9498  138.8897  162.6476 C.ar    1  UNL1        0.2014
      9 N         140.0954  139.7406  162.1857 N.ar    1  UNL1       -0.2065
     10 C         140.9215  140.4934  163.1860 C.ar    1  UNL1        0.1482
     11 H         139.6787  139.9407  167.2290 H       1  UNL1        0.1437
     12 H         138.3846  138.8881  166.8756 H       1  UNL1        0.1437
     13 C         141.6335  141.4387  166.8826 C.ar    1  UNL1        0.0029
     14 C         142.4452  140.5079  167.7340 C.ar    1  UNL1        0.0010
     15 C         142.4930  140.7008  169.2208 C.ar    1  UNL1        0.0126
     16 C         141.7291  141.8245  169.8562 C.ar    1  UNL1        0.0705
     17 CL        141.7769  142.0174  171.3430 Cl      1  UNL1       -0.0810
     18 C         140.9175  142.7553  169.0048 C.ar    1  UNL1        0.0522
     19 N         140.1537  143.8790  169.6402 N.pl3   1  UNL1       -0.3563
     20 C         140.8698  142.5624  167.5180 C.ar    1  UNL1        0.0150
     21 H         140.1850  144.0057  170.6161 H       1  UNL1        0.1424
     22 H         139.6210  144.4900  169.0815 H       1  UNL1        0.1424
     23 C         144.0703  142.5423  159.1459 C.3     1  UNL1        0.0749
     24 C         142.6042  142.2272  159.1800 C.3     1  UNL1        0.0216
     25 C         141.9484  141.8479  160.4746 C.3     1  UNL1        0.0243
     26 C         142.7587  141.7837  161.7352 C.3     1  UNL1        0.0870
     27 C         144.2249  142.0988  161.7012 C.3     1  UNL1        0.0243
     28 C         144.8807  142.4781  160.4066 C.3     1  UNL1        0.0216
     29 C         145.2257  141.8548  156.9228 C.2     1  UNL1        0.4017
     30 O         145.0697  140.4086  157.2890 O.2     1  UNL1       -0.2264
     31 N         144.7261  142.9217  157.8513 N.am    1  UNL1       -0.2723
     32 H         144.8285  143.8709  157.6110 H       1  UNL1        0.1527
     33 C         147.3108  141.8576  155.3729 C.3     1  UNL1        0.2573
     34 O         145.8815  142.2342  155.6282 O.3     1  UNL1       -0.4306
@<TRIPOS>BOND
     1    33    34    1
     2    34    29    1
     3    29    30    2
     4    29    31   am
     5    23    31    1
     6    23    24    1
     7    24    25    1
     8    25    26    1
     9    26     1    1
    10     1     2   ar
    11     2     3   ar
    12     3    13    1
    13    13    14   ar
    14    14    15   ar
    15    15    16   ar
    16    16    17    1
    17    16    18   ar
    18    18    19    1
    19    18    20   ar
    20     3     4   ar
    21     4     5   ar
    22     5     6    1
    23     5     7   ar
    24     7     8   ar
    25     8     9   ar
    26     9    10   ar
    27    26    27    1
    28    27    28    1
    29    28    23    1
    30    10     1   ar
    31    20    13   ar
    32    10     4   ar
    33    31    32    1
    34    19    21    1
    35    19    22    1
    36     6    11    1
    37     6    12    1
@<TRIPOS>MOLECULE
*****
 34 37 0 0 0
SMALL
GASTEIGER

@<TRIPOS>ATOM
      1 N         140.4874  145.1084  158.0654 N.ar    1  UNL1       -0.3133
      2 C         141.4804  145.3721  159.1583 C.ar    1  UNL1        0.0771
      3 C         141.3547  144.2749  160.1733 C.ar    1  UNL1        0.0229
      4 C         140.2841  143.3331  159.7078 C.ar    1  UNL1        0.0668
      5 C         139.7281  142.0730  160.3019 C.ar    1  UNL1        0.1300
      6 N         140.2642  141.5579  161.6047 N.pl3   1  UNL1       -0.3425
      7 N         138.6360  141.3280  159.5932 N.ar    1  UNL1       -0.2094
      8 C         138.1000  141.8431  158.2904 C.ar    1  UNL1        0.2014
      9 N         138.6560  143.1032  157.6963 N.ar    1  UNL1       -0.2065
     10 C         139.7481  143.8482  158.4050 C.ar    1  UNL1        0.1482
     11 H         140.9809  142.0469  162.0699 H       1  UNL1        0.1437
     12 H         139.8992  140.7309  161.9947 H       1  UNL1        0.1437
     13 C         142.1586  144.1428  161.4328 C.ar    1  UNL1        0.0029
     14 C         141.6980  144.8177  162.6909 C.ar    1  UNL1        0.0010
     15 C         142.5018  144.6855  163.9504 C.ar    1  UNL1        0.0126
     16 C         143.7662  143.8785  163.9520 C.ar    1  UNL1        0.0705
     17 CL        144.5701  143.7463  165.2115 Cl      1  UNL1       -0.0810
     18 C         144.2268  143.2037  162.6940 C.ar    1  UNL1        0.0522
     19 N         145.4912  142.3967  162.6956 N.pl3   1  UNL1       -0.3563
     20 C         143.4229  143.3358  161.4345 C.ar    1  UNL1        0.0150
     21 H         146.0188  142.3099  163.5222 H       1  UNL1        0.1424
     22 H         145.7935  141.9537  161.8699 H       1  UNL1        0.1424
     23 C         139.8401  147.6511  154.4095 C.3     1  UNL1        0.0749
     24 C         139.0167  147.8851  155.6412 C.3     1  UNL1        0.0216
     25 C         139.2325  147.0375  156.8598 C.3     1  UNL1        0.0243
     26 C         140.2716  145.9560  156.8468 C.3     1  UNL1        0.0870
     27 C         141.0951  145.7219  155.6149 C.3     1  UNL1        0.0243
     28 C         140.8793  146.5695  154.3963 C.3     1  UNL1        0.0216
     29 C         140.0674  149.9318  153.1859 C.2     1  UNL1        0.4017
     30 O         140.7264  150.5172  154.3996 O.2     1  UNL1       -0.2264
     31 N         139.6243  148.4987  153.1908 N.am    1  UNL1       -0.2723
     32 H         139.1918  148.1145  152.3943 H       1  UNL1        0.1527
     33 C         138.8841  151.9247  152.0121 C.3     1  UNL1        0.2573
     34 O         139.8516  150.7793  151.9672 O.3     1  UNL1       -0.4306
@<TRIPOS>BOND
     1    33    34    1
     2    34    29    1
     3    29    30    2
     4    29    31   am
     5    23    31    1
     6    23    24    1
     7    24    25    1
     8    25    26    1
     9    26     1    1
    10     1     2   ar
    11     2     3   ar
    12     3    13    1
    13    13    14   ar
    14    14    15   ar
    15    15    16   ar
    16    16    17    1
    17    16    18   ar
    18    18    19    1
    19    18    20   ar
    20     3     4   ar
    21     4     5   ar
    22     5     6    1
    23     5     7   ar
    24     7     8   ar
    25     8     9   ar
    26     9    10   ar
    27    26    27    1
    28    27    28    1
    29    28    23    1
    30    10     1   ar
    31    20    13   ar
    32    10     4   ar
    33    31    32    1
    34    19    21    1
    35    19    22    1
    36     6    11    1
    37     6    12    1
@<TRIPOS>MOLECULE
*****
 34 37 0 0 0
SMALL
GASTEIGER

@<TRIPOS>ATOM
      1 N         143.8088  141.4306  159.5398 N.ar    1  UNL1       -0.3133
      2 C         143.0025  142.5323  160.1610 C.ar    1  UNL1        0.0771
      3 C         142.3239  141.9797  161.3792 C.ar    1  UNL1        0.0229
      4 C         142.7108  140.5365  161.5109 C.ar    1  UNL1        0.0668
      5 C         142.3461  139.4875  162.5191 C.ar    1  UNL1        0.1300
      6 N         141.4283  139.8269  163.6560 N.pl3   1  UNL1       -0.3425
      7 N         142.8991  138.0992  162.3905 N.ar    1  UNL1       -0.2094
      8 C         143.8169  137.7598  161.2536 C.ar    1  UNL1        0.2014
      9 N         144.1816  138.8087  160.2454 N.ar    1  UNL1       -0.2065
     10 C         143.6286  140.1971  160.3740 C.ar    1  UNL1        0.1482
     11 H         141.0654  140.7382  163.7405 H       1  UNL1        0.1437
     12 H         141.1889  139.1384  164.3178 H       1  UNL1        0.1437
     13 C         141.4174  142.7373  162.3036 C.ar    1  UNL1        0.0029
     14 C         141.9490  143.2803  163.5970 C.ar    1  UNL1        0.0010
     15 C         141.0426  144.0379  164.5213 C.ar    1  UNL1        0.0126
     16 C         139.6046  144.2526  164.1523 C.ar    1  UNL1        0.0705
     17 CL        138.6982  145.0102  165.0766 Cl      1  UNL1       -0.0810
     18 C         139.0731  143.7097  162.8590 C.ar    1  UNL1        0.0522
     19 N         137.6351  143.9243  162.4900 N.pl3   1  UNL1       -0.3563
     20 C         139.9795  142.9520  161.9347 C.ar    1  UNL1        0.0150
     21 H         137.0402  144.4216  163.0967 H       1  UNL1        0.1424
     22 H         137.2863  143.5680  161.6412 H       1  UNL1        0.1424
     23 C         146.3267  141.7668  155.8252 C.3     1  UNL1        0.0749
     24 C         145.2999  140.6794  155.9394 C.3     1  UNL1        0.0216
     25 C         144.4606  140.5674  157.1776 C.3     1  UNL1        0.0243
     26 C         144.6481  141.5426  158.3016 C.3     1  UNL1        0.0870
     27 C         145.6751  142.6301  158.1874 C.3     1  UNL1        0.0243
     28 C         146.5143  142.7422  156.9493 C.3     1  UNL1        0.0216
     29 C         148.6623  141.8738  154.6922 C.2     1  UNL1        0.4017
     30 O         149.3193  141.7567  156.0356 O.2     1  UNL1       -0.2264
     31 N         147.1660  141.8789  154.5871 N.am    1  UNL1       -0.2723
     32 H         146.7348  141.9557  153.7054 H       1  UNL1        0.1527
     33 C         149.8749  143.3373  152.9209 C.3     1  UNL1        0.2573
     34 O         149.5015  141.9859  153.4540 O.3     1  UNL1       -0.4306
@<TRIPOS>BOND
     1    33    34    1
     2    34    29    1
     3    29    30    2
     4    29    31   am
     5    23    31    1
     6    23    24    1
     7    24    25    1
     8    25    26    1
     9    26     1    1
    10     1     2   ar
    11     2     3   ar
    12     3    13    1
    13    13    14   ar
    14    14    15   ar
    15    15    16   ar
    16    16    17    1
    17    16    18   ar
    18    18    19    1
    19    18    20   ar
    20     3     4   ar
    21     4     5   ar
    22     5     6    1
    23     5     7   ar
    24     7     8   ar
    25     8     9   ar
    26     9    10   ar
    27    26    27    1
    28    27    28    1
    29    28    23    1
    30    10     1   ar
    31    20    13   ar
    32    10     4   ar
    33    31    32    1
    34    19    21    1
    35    19    22    1
    36     6    11    1
    37     6    12    1
@<TRIPOS>MOLECULE
*****
 34 37 0 0 0
SMALL
GASTEIGER

@<TRIPOS>ATOM
      1 N         142.5260  142.0865  162.7619 N.ar    1  UNL1       -0.3133
      2 C         143.0719  141.4047  163.9814 C.ar    1  UNL1        0.0771
      3 C         142.2579  141.8448  165.1619 C.ar    1  UNL1        0.0229
      4 C         141.2089  142.7985  164.6721 C.ar    1  UNL1        0.0668
      5 C         140.1242  143.5502  165.3851 C.ar    1  UNL1        0.1300
      6 N         139.9586  143.4008  166.8684 N.pl3   1  UNL1       -0.3425
      7 N         139.2052  144.4513  164.6148 N.ar    1  UNL1       -0.2094
      8 C         139.3709  144.6007  163.1315 C.ar    1  UNL1        0.2014
      9 N         140.4556  143.8490  162.4185 N.ar    1  UNL1       -0.2065
     10 C         141.3746  142.9479  163.1888 C.ar    1  UNL1        0.1482
     11 H         140.5617  142.8094  167.3740 H       1  UNL1        0.1437
     12 H         139.2466  143.8942  167.3364 H       1  UNL1        0.1437
     13 C         142.4578  141.4078  166.5829 C.ar    1  UNL1        0.0029
     14 C         141.9596  140.0661  167.0322 C.ar    1  UNL1        0.0010
     15 C         142.1595  139.6292  168.4531 C.ar    1  UNL1        0.0126
     16 C         142.8576  140.5339  169.4248 C.ar    1  UNL1        0.0705
     17 CL        143.0575  140.0969  170.8458 Cl      1  UNL1       -0.0810
     18 C         143.3557  141.8755  168.9756 C.ar    1  UNL1        0.0522
     19 N         144.0538  142.7802  169.9473 N.pl3   1  UNL1       -0.3563
     20 C         143.1558  142.3124  167.5546 C.ar    1  UNL1        0.0150
     21 H         144.1850  142.4934  170.8799 H       1  UNL1        0.1424
     22 H         144.3808  143.6607  169.6525 H       1  UNL1        0.1424
     23 C         144.0711  141.6280  158.5604 C.3     1  UNL1        0.0749
     24 C         143.7035  142.9861  159.0803 C.3     1  UNL1        0.0216
     25 C         143.1885  143.1389  160.4808 C.3     1  UNL1        0.0243
     26 C         143.0410  141.9337  161.3614 C.3     1  UNL1        0.0870
     27 C         143.4085  140.5754  160.8415 C.3     1  UNL1        0.0243
     28 C         143.9236  140.4226  159.4409 C.3     1  UNL1        0.0216
     29 C         145.9067  142.0746  156.7768 C.2     1  UNL1        0.4017
     30 O         146.7123  142.8268  157.7943 O.2     1  UNL1       -0.2264
     31 N         144.5861  141.4752  157.1599 N.am    1  UNL1       -0.2723
     32 H         144.0574  140.9815  156.4921 H       1  UNL1        0.1527
     33 C         145.4601  141.7402  154.2394 C.3     1  UNL1        0.2573
     34 O         146.4216  141.9217  155.3763 O.3     1  UNL1       -0.4306
@<TRIPOS>BOND
     1    33    34    1
     2    34    29    1
     3    29    30    2
     4    29    31   am
     5    23    31    1
     6    23    24    1
     7    24    25    1
     8    25    26    1
     9    26     1    1
    10     1     2   ar
    11     2     3   ar
    12     3    13    1
    13    13    14   ar
    14    14    15   ar
    15    15    16   ar
    16    16    17    1
    17    16    18   ar
    18    18    19    1
    19    18    20   ar
    20     3     4   ar
    21     4     5   ar
    22     5     6    1
    23     5     7   ar
    24     7     8   ar
    25     8     9   ar
    26     9    10   ar
    27    26    27    1
    28    27    28    1
    29    28    23    1
    30    10     1   ar
    31    20    13   ar
    32    10     4   ar
    33    31    32    1
    34    19    21    1
    35    19    22    1
    36     6    11    1
    37     6    12    1
