@<TRIPOS>MOLECULE
*****
 33 35 0 0 0
SMALL
GASTEIGER

@<TRIPOS>ATOM
      1 C         139.7470  139.2953  164.9020 C.2     1  UNL1        0.2495
      2 O         138.7583  138.1893  164.6797 O.2     1  UNL1       -0.2698
      3 N         140.1345  140.1944  163.7656 N.am    1  UNL1       -0.2794
      4 H         140.7834  140.9203  163.9114 H       1  UNL1        0.1552
      5 C         139.5334  139.9875  162.4070 C.ar    1  UNL1        0.0636
      6 C         140.3685  139.4248  161.2951 C.ar    1  UNL1        0.0164
      7 C         139.7674  139.2179  159.9365 C.ar    1  UNL1        0.0073
      8 C         138.3312  139.5738  159.6897 C.ar    1  UNL1        0.0018
      9 C         137.4962  140.1365  160.8015 C.ar    1  UNL1        0.0154
     10 C         138.0973  140.3434  162.1601 C.ar    1  UNL1        0.0552
     11 N         137.2623  140.9061  163.2719 N.pl3   1  UNL1       -0.3560
     12 H         136.3197  141.1396  163.1099 H       1  UNL1        0.1424
     13 H         137.6569  141.0418  164.1636 H       1  UNL1        0.1424
     14 C         140.6023  138.6552  158.8247 C.ar    1  UNL1        0.0295
     15 C         142.0970  138.5291  158.8216 C.ar    1  UNL1        0.0070
     16 C         142.5077  137.9157  157.5158 C.ar    1  UNL1        0.0075
     17 C         141.2668  137.6628  156.7119 C.ar    1  UNL1        0.0354
     18 S         140.0892  138.1198  157.5209 S.2     1  UNL1       -0.0864
     19 C         141.5503  139.9159  168.9779 C.ar    1  UNL1        0.0025
     20 C         142.4301  139.5709  167.8131 C.ar    1  UNL1       -0.0023
     21 C         141.8290  139.3640  166.4545 C.ar    1  UNL1        0.0043
     22 C         140.3481  139.5022  166.2606 C.ar    1  UNL1        0.0537
     23 C         139.4682  139.8472  167.4254 C.ar    1  UNL1        0.0043
     24 C         140.0693  140.0540  168.7840 C.ar    1  UNL1       -0.0023
     25 C         142.1514  140.1228  170.3365 C.3     1  UNL1        0.1740
     26 N         143.2818  139.2511  170.7971 N.3     1  UNL1       -0.3100
     27 H         143.5646  139.5293  171.7368 H       1  UNL1        0.1196
     28 H         144.0717  139.3537  170.1600 H       1  UNL1        0.1196
     29 C         141.6220  141.2013  171.2345 C.2     1  UNL1        0.3354
     30 O         140.5259  140.8933  172.2111 O.2     1  UNL1       -0.2482
     31 O         142.1888  142.5879  171.1560 O.3     1  UNL1       -0.4474
     32 C         140.3947  143.6780  169.6252 C.3     1  UNL1        0.0513
     33 C         141.8326  143.4796  170.0035 C.3     1  UNL1        0.2086
@<TRIPOS>BOND
     1    32    33    1
     2    33    31    1
     3    31    29    1
     4    29    30    2
     5    29    25    1
     6    25    26    1
     7    25    19    1
     8    19    20   ar
     9    20    21   ar
    10    21    22   ar
    11    22     1    1
    12     1     2    2
    13     1     3   am
    14     3     5    1
    15     5     6   ar
    16     6     7   ar
    17     7    14    1
    18    14    15   ar
    19    15    16   ar
    20    16    17   ar
    21    17    18   ar
    22     7     8   ar
    23     8     9   ar
    24     9    10   ar
    25    10    11    1
    26    22    23   ar
    27    23    24   ar
    28    24    19   ar
    29    10     5   ar
    30    18    14   ar
    31    26    27    1
    32    26    28    1
    33     3     4    1
    34    11    12    1
    35    11    13    1
@<TRIPOS>MOLECULE
*****
 33 35 0 0 0
SMALL
GASTEIGER

@<TRIPOS>ATOM
      1 C         139.9173  140.9983  164.2100 C.2     1  UNL1        0.2495
      2 O         140.9839  140.2790  163.4387 O.2     1  UNL1       -0.2698
      3 N         138.8178  141.7129  163.4818 N.am    1  UNL1       -0.2794
      4 H         138.1178  142.1850  163.9881 H       1  UNL1        0.1552
      5 C         138.7850  141.7084  161.9822 C.ar    1  UNL1        0.0636
      6 C         139.4411  142.8175  161.2143 C.ar    1  UNL1        0.0164
      7 C         139.4082  142.8130  159.7146 C.ar    1  UNL1        0.0073
      8 C         138.7193  141.6994  158.9829 C.ar    1  UNL1        0.0018
      9 C         138.0632  140.5904  159.7508 C.ar    1  UNL1        0.0154
     10 C         138.0961  140.5949  161.2504 C.ar    1  UNL1        0.0552
     11 N         137.4400  139.4859  162.0183 N.pl3   1  UNL1       -0.3560
     12 H         136.9879  138.7551  161.5381 H       1  UNL1        0.1424
     13 H         137.4616  139.4889  163.0026 H       1  UNL1        0.1424
     14 C         140.0643  143.9220  158.9467 C.ar    1  UNL1        0.0295
     15 C         139.7868  144.2903  157.5194 C.ar    1  UNL1        0.0070
     16 C         140.6640  145.4533  157.1618 C.ar    1  UNL1        0.0075
     17 C         141.4837  145.8038  158.3683 C.ar    1  UNL1        0.0354
     18 S         141.1130  144.8573  159.4714 S.2     1  UNL1       -0.0864
     19 C         140.0158  141.0118  168.7089 C.ar    1  UNL1        0.0025
     20 C         139.4749  139.8212  167.9742 C.ar    1  UNL1       -0.0023
     21 C         139.4421  139.8167  166.4746 C.ar    1  UNL1        0.0043
     22 C         139.9501  141.0028  165.7097 C.ar    1  UNL1        0.0537
     23 C         140.4910  142.1933  166.4444 C.ar    1  UNL1        0.0043
     24 C         140.5239  142.1979  167.9441 C.ar    1  UNL1       -0.0023
     25 C         140.0487  141.0163  170.2086 C.3     1  UNL1        0.1740
     26 N         139.7540  139.7574  170.9690 N.3     1  UNL1       -0.3100
     27 H         139.8206  139.9414  171.9701 H       1  UNL1        0.1196
     28 H         140.4288  139.0378  170.7099 H       1  UNL1        0.1196
     29 C         140.3763  142.2797  170.9478 C.2     1  UNL1        0.3354
     30 O         139.3244  143.3324  171.1367 O.2     1  UNL1       -0.2482
     31 O         141.7556  142.4905  171.4981 O.3     1  UNL1       -0.4474
     32 C         143.6829  142.2313  169.7751 C.3     1  UNL1        0.0513
     33 C         142.8206  143.1041  170.6381 C.3     1  UNL1        0.2086
@<TRIPOS>BOND
     1    32    33    1
     2    33    31    1
     3    31    29    1
     4    29    30    2
     5    29    25    1
     6    25    26    1
     7    25    19    1
     8    19    20   ar
     9    20    21   ar
    10    21    22   ar
    11    22     1    1
    12     1     2    2
    13     1     3   am
    14     3     5    1
    15     5     6   ar
    16     6     7   ar
    17     7    14    1
    18    14    15   ar
    19    15    16   ar
    20    16    17   ar
    21    17    18   ar
    22     7     8   ar
    23     8     9   ar
    24     9    10   ar
    25    10    11    1
    26    22    23   ar
    27    23    24   ar
    28    24    19   ar
    29    10     5   ar
    30    18    14   ar
    31    26    27    1
    32    26    28    1
    33     3     4    1
    34    11    12    1
    35    11    13    1
@<TRIPOS>MOLECULE
*****
 33 35 0 0 0
SMALL
GASTEIGER

@<TRIPOS>ATOM
      1 C         140.4040  142.2699  164.2074 C.2     1  UNL1        0.2495
      2 O         141.4131  141.5445  163.3676 O.2     1  UNL1       -0.2698
      3 N         139.5718  143.3620  163.6036 N.am    1  UNL1       -0.2794
      4 H         138.9094  143.8381  164.1549 H       1  UNL1        0.1552
      5 C         139.7487  143.7288  162.1600 C.ar    1  UNL1        0.0636
      6 C         139.2376  142.8150  161.0859 C.ar    1  UNL1        0.0164
      7 C         139.4146  143.1818  159.6422 C.ar    1  UNL1        0.0073
      8 C         140.1027  144.4625  159.2727 C.ar    1  UNL1        0.0018
      9 C         140.6138  145.3763  160.3468 C.ar    1  UNL1        0.0154
     10 C         140.4368  145.0094  161.7905 C.ar    1  UNL1        0.0552
     11 N         140.9479  145.9232  162.8646 N.pl3   1  UNL1       -0.3560
     12 H         141.3996  146.7637  162.6221 H       1  UNL1        0.1424
     13 H         140.8318  145.6824  163.8121 H       1  UNL1        0.1424
     14 C         138.9035  142.2681  158.5681 C.ar    1  UNL1        0.0295
     15 C         137.8352  142.5950  157.5671 C.ar    1  UNL1        0.0070
     16 C         137.6424  141.3959  156.6867 C.ar    1  UNL1        0.0075
     17 C         138.5915  140.3280  157.1436 C.ar    1  UNL1        0.0354
     18 S         139.3709  140.8670  158.3064 S.2     1  UNL1       -0.0864
     19 C         139.8730  141.1694  168.5384 C.ar    1  UNL1        0.0025
     20 C         140.3285  142.5490  168.1655 C.ar    1  UNL1       -0.0023
     21 C         140.5055  142.9158  166.7219 C.ar    1  UNL1        0.0043
     22 C         140.2270  141.9030  165.6511 C.ar    1  UNL1        0.0537
     23 C         139.7715  140.5234  166.0239 C.ar    1  UNL1        0.0043
     24 C         139.5945  140.1566  167.4676 C.ar    1  UNL1       -0.0023
     25 C         139.6960  140.8025  169.9820 C.3     1  UNL1        0.1740
     26 N         138.4382  140.1218  170.4341 N.3     1  UNL1       -0.3100
     27 H         138.4876  139.9479  171.4380 H       1  UNL1        0.1196
     28 H         138.3349  139.2354  169.9402 H       1  UNL1        0.1196
     29 C         140.7768  141.1164  170.9736 C.2     1  UNL1        0.3354
     30 O         140.5471  142.1571  172.0292 O.2     1  UNL1       -0.2482
     31 O         142.0875  140.3896  170.9095 O.3     1  UNL1       -0.4474
     32 C         143.4041  142.4215  169.9670 C.3     1  UNL1        0.0513
     33 C         143.2095  140.9383  170.0788 C.3     1  UNL1        0.2086
@<TRIPOS>BOND
     1    32    33    1
     2    33    31    1
     3    31    29    1
     4    29    30    2
     5    29    25    1
     6    25    26    1
     7    25    19    1
     8    19    20   ar
     9    20    21   ar
    10    21    22   ar
    11    22     1    1
    12     1     2    2
    13     1     3   am
    14     3     5    1
    15     5     6   ar
    16     6     7   ar
    17     7    14    1
    18    14    15   ar
    19    15    16   ar
    20    16    17   ar
    21    17    18   ar
    22     7     8   ar
    23     8     9   ar
    24     9    10   ar
    25    10    11    1
    26    22    23   ar
    27    23    24   ar
    28    24    19   ar
    29    10     5   ar
    30    18    14   ar
    31    26    27    1
    32    26    28    1
    33     3     4    1
    34    11    12    1
    35    11    13    1
@<TRIPOS>MOLECULE
*****
 33 35 0 0 0
SMALL
GASTEIGER

@<TRIPOS>ATOM
      1 C         141.1036  139.1314  164.7494 C.2     1  UNL1        0.2495
      2 O         142.1605  138.1513  164.3343 O.2     1  UNL1       -0.2698
      3 N         140.2399  139.7868  163.7129 N.am    1  UNL1       -0.2794
      4 H         139.5462  140.4301  163.9853 H       1  UNL1        0.1552
      5 C         140.4332  139.4622  162.2612 C.ar    1  UNL1        0.0636
      6 C         141.5065  140.1543  161.4744 C.ar    1  UNL1        0.0164
      7 C         141.6998  139.8297  160.0227 C.ar    1  UNL1        0.0073
      8 C         140.8197  138.8130  159.3579 C.ar    1  UNL1        0.0018
      9 C         139.7464  138.1210  160.1447 C.ar    1  UNL1        0.0154
     10 C         139.5532  138.4456  161.5964 C.ar    1  UNL1        0.0552
     11 N         138.4799  137.7536  162.3832 N.pl3   1  UNL1       -0.3560
     12 H         137.9023  137.0863  161.9469 H       1  UNL1        0.1424
     13 H         138.3531  137.9666  163.3360 H       1  UNL1        0.1424
     14 C         142.7730  140.5218  159.2359 C.ar    1  UNL1        0.0295
     15 C         143.4954  139.9608  158.0470 C.ar    1  UNL1        0.0070
     16 C         144.4812  140.9886  157.5761 C.ar    1  UNL1        0.0075
     17 C         144.3681  142.1849  158.4740 C.ar    1  UNL1        0.0354
     18 S         143.3124  141.8963  159.4998 S.2     1  UNL1       -0.0864
     19 C         140.5238  140.1052  169.1043 C.ar    1  UNL1        0.0025
     20 C         141.9050  139.8845  168.5626 C.ar    1  UNL1       -0.0023
     21 C         142.0982  139.5599  167.1109 C.ar    1  UNL1        0.0043
     22 C         140.9103  139.4560  166.2010 C.ar    1  UNL1        0.0537
     23 C         139.5291  139.6766  166.7428 C.ar    1  UNL1        0.0043
     24 C         139.3358  140.0012  168.1944 C.ar    1  UNL1       -0.0023
     25 C         140.3305  140.4298  170.5560 C.3     1  UNL1        0.1740
     26 N         139.8623  139.3677  171.5061 N.3     1  UNL1       -0.3100
     27 H         139.7864  139.7604  172.4444 H       1  UNL1        0.1196
     28 H         140.5318  138.5983  171.5127 H       1  UNL1        0.1196
     29 C         140.6055  141.8164  171.0575 C.2     1  UNL1        0.3354
     30 O         139.4950  142.8225  171.1279 O.2     1  UNL1       -0.2482
     31 O         141.9908  142.1971  171.4886 O.3     1  UNL1       -0.4474
     32 C         143.9814  142.4346  169.8359 C.3     1  UNL1        0.0513
     33 C         142.8456  143.0498  170.5985 C.3     1  UNL1        0.2086
@<TRIPOS>BOND
     1    32    33    1
     2    33    31    1
     3    31    29    1
     4    29    30    2
     5    29    25    1
     6    25    26    1
     7    25    19    1
     8    19    20   ar
     9    20    21   ar
    10    21    22   ar
    11    22     1    1
    12     1     2    2
    13     1     3   am
    14     3     5    1
    15     5     6   ar
    16     6     7   ar
    17     7    14    1
    18    14    15   ar
    19    15    16   ar
    20    16    17   ar
    21    17    18   ar
    22     7     8   ar
    23     8     9   ar
    24     9    10   ar
    25    10    11    1
    26    22    23   ar
    27    23    24   ar
    28    24    19   ar
    29    10     5   ar
    30    18    14   ar
    31    26    27    1
    32    26    28    1
    33     3     4    1
    34    11    12    1
    35    11    13    1
@<TRIPOS>MOLECULE
*****
 33 35 0 0 0
SMALL
GASTEIGER

@<TRIPOS>ATOM
      1 C         141.0222  141.9715  164.2169 C.2     1  UNL1        0.2495
      2 O         140.2615  141.2023  163.1778 O.2     1  UNL1       -0.2698
      3 N         141.6753  143.2732  163.8577 N.am    1  UNL1       -0.2794
      4 H         142.1746  143.7781  164.5397 H       1  UNL1        0.1552
      5 C         141.5678  143.8056  162.4595 C.ar    1  UNL1        0.0636
      6 C         142.4305  143.2371  161.3721 C.ar    1  UNL1        0.0164
      7 C         142.3229  143.7696  159.9739 C.ar    1  UNL1        0.0073
      8 C         141.3527  144.8706  159.6632 C.ar    1  UNL1        0.0018
      9 C         140.4900  145.4390  160.7506 C.ar    1  UNL1        0.0154
     10 C         140.5975  144.9066  162.1488 C.ar    1  UNL1        0.0552
     11 N         139.7349  145.4750  163.2363 N.pl3   1  UNL1       -0.3560
     12 H         139.0981  146.1976  163.0323 H       1  UNL1        0.1424
     13 H         139.8055  145.1256  164.1539 H       1  UNL1        0.1424
     14 C         143.1856  143.2011  158.8864 C.ar    1  UNL1        0.0295
     15 C         144.5000  142.5039  159.0774 C.ar    1  UNL1        0.0070
     16 C         145.0121  142.1019  157.7260 C.ar    1  UNL1        0.0075
     17 C         144.0142  142.5507  156.6999 C.ar    1  UNL1        0.0354
     18 S         142.8854  143.2300  157.4171 S.2     1  UNL1       -0.0864
     19 C         141.3448  140.3741  168.4114 C.ar    1  UNL1        0.0025
     20 C         140.0043  140.4652  167.7446 C.ar    1  UNL1       -0.0023
     21 C         139.8968  140.9976  166.3464 C.ar    1  UNL1        0.0043
     22 C         141.1297  141.4391  165.6151 C.ar    1  UNL1        0.0537
     23 C         142.4702  141.3480  166.2819 C.ar    1  UNL1        0.0043
     24 C         142.5778  140.8156  167.6801 C.ar    1  UNL1       -0.0023
     25 C         141.4524  139.8417  169.8096 C.3     1  UNL1        0.1740
     26 N         142.5659  138.9041  170.1715 N.3     1  UNL1       -0.3100
     27 H         142.4857  138.6445  171.1547 H       1  UNL1        0.1196
     28 H         143.4625  139.3640  170.0133 H       1  UNL1        0.1196
     29 C         140.4464  140.2468  170.8459 C.2     1  UNL1        0.3354
     30 O         139.3528  139.2989  171.2405 O.2     1  UNL1       -0.2482
     31 O         140.5340  141.5998  171.4876 O.3     1  UNL1       -0.4474
     32 C         140.6025  143.6207  169.8562 C.3     1  UNL1        0.0513
     33 C         139.8590  142.7776  170.8494 C.3     1  UNL1        0.2086
@<TRIPOS>BOND
     1    32    33    1
     2    33    31    1
     3    31    29    1
     4    29    30    2
     5    29    25    1
     6    25    26    1
     7    25    19    1
     8    19    20   ar
     9    20    21   ar
    10    21    22   ar
    11    22     1    1
    12     1     2    2
    13     1     3   am
    14     3     5    1
    15     5     6   ar
    16     6     7   ar
    17     7    14    1
    18    14    15   ar
    19    15    16   ar
    20    16    17   ar
    21    17    18   ar
    22     7     8   ar
    23     8     9   ar
    24     9    10   ar
    25    10    11    1
    26    22    23   ar
    27    23    24   ar
    28    24    19   ar
    29    10     5   ar
    30    18    14   ar
    31    26    27    1
    32    26    28    1
    33     3     4    1
    34    11    12    1
    35    11    13    1
@<TRIPOS>MOLECULE
*****
 33 35 0 0 0
SMALL
GASTEIGER

@<TRIPOS>ATOM
      1 C         139.0622  140.5721  164.3855 C.2     1  UNL1        0.2495
      2 O         137.6803  140.7818  163.8410 O.2     1  UNL1       -0.2698
      3 N         140.2001  140.2828  163.4520 N.am    1  UNL1       -0.2794
      4 H         141.1071  140.1452  163.8094 H       1  UNL1        0.1552
      5 C         139.9562  140.2032  161.9741 C.ar    1  UNL1        0.0636
      6 C         140.0766  141.4351  161.1267 C.ar    1  UNL1        0.0164
      7 C         139.8327  141.3555  159.6488 C.ar    1  UNL1        0.0073
      8 C         139.4684  140.0441  159.0183 C.ar    1  UNL1        0.0018
      9 C         139.3480  138.8123  159.8658 C.ar    1  UNL1        0.0154
     10 C         139.5919  138.8919  161.3437 C.ar    1  UNL1        0.0552
     11 N         139.4715  137.6601  162.1911 N.pl3   1  UNL1       -0.3560
     12 H         139.2324  136.7994  161.7773 H       1  UNL1        0.1424
     13 H         139.6316  137.7123  163.1611 H       1  UNL1        0.1424
     14 C         139.9531  142.5873  158.8014 C.ar    1  UNL1        0.0295
     15 C         139.8893  142.6368  157.3035 C.ar    1  UNL1        0.0070
     16 C         140.0552  144.0659  156.8794 C.ar    1  UNL1        0.0075
     17 C         140.2215  144.8998  158.1152 C.ar    1  UNL1        0.0354
     18 S         140.1583  143.9859  159.3030 S.2     1  UNL1       -0.0864
     19 C         139.7939  140.8108  168.8192 C.ar    1  UNL1        0.0025
     20 C         140.3392  141.8726  167.9108 C.ar    1  UNL1       -0.0023
     21 C         140.0953  141.7930  166.4329 C.ar    1  UNL1        0.0043
     22 C         139.3061  140.6517  165.8634 C.ar    1  UNL1        0.0537
     23 C         138.7608  139.5899  166.7718 C.ar    1  UNL1        0.0043
     24 C         139.0047  139.6695  168.2497 C.ar    1  UNL1       -0.0023
     25 C         140.0378  140.8904  170.2971 C.3     1  UNL1        0.1740
     26 N         139.9163  139.6589  171.1447 N.3     1  UNL1       -0.3100
     27 H         140.1143  139.8945  172.1171 H       1  UNL1        0.1196
     28 H         140.5827  138.9572  170.8224 H       1  UNL1        0.1196
     29 C         140.4033  142.2015  170.9273 C.2     1  UNL1        0.3354
     30 O         139.3649  143.2722  171.0873 O.2     1  UNL1       -0.2482
     31 O         141.8072  142.4421  171.3977 O.3     1  UNL1       -0.4474
     32 C         143.6610  142.2322  169.5895 C.3     1  UNL1        0.0513
     33 C         142.8059  143.0836  170.4805 C.3     1  UNL1        0.2086
@<TRIPOS>BOND
     1    32    33    1
     2    33    31    1
     3    31    29    1
     4    29    30    2
     5    29    25    1
     6    25    26    1
     7    25    19    1
     8    19    20   ar
     9    20    21   ar
    10    21    22   ar
    11    22     1    1
    12     1     2    2
    13     1     3   am
    14     3     5    1
    15     5     6   ar
    16     6     7   ar
    17     7    14    1
    18    14    15   ar
    19    15    16   ar
    20    16    17   ar
    21    17    18   ar
    22     7     8   ar
    23     8     9   ar
    24     9    10   ar
    25    10    11    1
    26    22    23   ar
    27    23    24   ar
    28    24    19   ar
    29    10     5   ar
    30    18    14   ar
    31    26    27    1
    32    26    28    1
    33     3     4    1
    34    11    12    1
    35    11    13    1
@<TRIPOS>MOLECULE
*****
 33 35 0 0 0
SMALL
GASTEIGER

@<TRIPOS>ATOM
      1 C         143.3523  141.2403  164.7090 C.2     1  UNL1        0.2495
      2 O         144.6497  141.8558  164.2755 O.2     1  UNL1       -0.2698
      3 N         142.3364  140.8320  163.6838 N.am    1  UNL1       -0.2794
      4 H         141.4849  140.4280  163.9683 H       1  UNL1        0.1552
      5 C         142.6178  141.0392  162.2251 C.ar    1  UNL1        0.0636
      6 C         141.8677  142.0876  161.4581 C.ar    1  UNL1        0.0164
      7 C         142.1491  142.2948  159.9994 C.ar    1  UNL1        0.0073
      8 C         143.1806  141.4536  159.3077 C.ar    1  UNL1        0.0018
      9 C         143.9307  140.4053  160.0747 C.ar    1  UNL1        0.0154
     10 C         143.6493  140.1981  161.5334 C.ar    1  UNL1        0.0552
     11 N         144.3993  139.1497  162.3004 N.pl3   1  UNL1       -0.3560
     12 H         145.0763  138.5977  161.8464 H       1  UNL1        0.1424
     13 H         144.2146  139.0138  163.2578 H       1  UNL1        0.1424
     14 C         141.3990  143.3432  159.2324 C.ar    1  UNL1        0.0295
     15 C         141.3811  144.8125  159.5339 C.ar    1  UNL1        0.0070
     16 C         140.5062  145.4837  158.5170 C.ar    1  UNL1        0.0075
     17 C         139.9834  144.4292  157.5871 C.ar    1  UNL1        0.0354
     18 S         140.5352  143.1063  158.0292 S.2     1  UNL1       -0.0864
     19 C         142.5081  140.6187  169.0852 C.ar    1  UNL1        0.0025
     20 C         142.4313  139.4609  168.1347 C.ar    1  UNL1       -0.0023
     21 C         142.7127  139.6681  166.6760 C.ar    1  UNL1        0.0043
     22 C         143.0709  141.0331  166.1678 C.ar    1  UNL1        0.0537
     23 C         143.1478  142.1909  167.1183 C.ar    1  UNL1        0.0043
     24 C         142.8664  141.9837  168.5770 C.ar    1  UNL1       -0.0023
     25 C         142.2267  140.4115  170.5439 C.3     1  UNL1        0.1740
     26 N         143.3057  139.8974  171.4503 N.3     1  UNL1       -0.3100
     27 H         142.9425  139.8178  172.4001 H       1  UNL1        0.1196
     28 H         144.0943  140.5442  171.4409 H       1  UNL1        0.1196
     29 C         140.8663  140.7184  171.0963 C.2     1  UNL1        0.3354
     30 O         139.8075  139.6560  171.1156 O.2     1  UNL1       -0.2482
     31 O         140.5647  142.0876  171.6294 O.3     1  UNL1       -0.4474
     32 C         140.4176  144.0618  169.9468 C.3     1  UNL1        0.0513
     33 C         139.7423  143.0441  170.8177 C.3     1  UNL1        0.2086
@<TRIPOS>BOND
     1    32    33    1
     2    33    31    1
     3    31    29    1
     4    29    30    2
     5    29    25    1
     6    25    26    1
     7    25    19    1
     8    19    20   ar
     9    20    21   ar
    10    21    22   ar
    11    22     1    1
    12     1     2    2
    13     1     3   am
    14     3     5    1
    15     5     6   ar
    16     6     7   ar
    17     7    14    1
    18    14    15   ar
    19    15    16   ar
    20    16    17   ar
    21    17    18   ar
    22     7     8   ar
    23     8     9   ar
    24     9    10   ar
    25    10    11    1
    26    22    23   ar
    27    23    24   ar
    28    24    19   ar
    29    10     5   ar
    30    18    14   ar
    31    26    27    1
    32    26    28    1
    33     3     4    1
    34    11    12    1
    35    11    13    1
@<TRIPOS>MOLECULE
*****
 33 35 0 0 0
SMALL
GASTEIGER

@<TRIPOS>ATOM
      1 C         140.1431  142.3767  164.3166 C.2     1  UNL1        0.2495
      2 O         139.0612  141.9809  163.3560 O.2     1  UNL1       -0.2698
      3 N         141.3060  143.1957  163.8405 N.am    1  UNL1       -0.2794
      4 H         142.0161  143.4555  164.4710 H       1  UNL1        0.1552
      5 C         141.3871  143.6190  162.4037 C.ar    1  UNL1        0.0636
      6 C         142.1281  142.7710  161.4127 C.ar    1  UNL1        0.0164
      7 C         142.2092  143.1942  159.9760 C.ar    1  UNL1        0.0073
      8 C         141.5492  144.4654  159.5301 C.ar    1  UNL1        0.0018
      9 C         140.8082  145.3132  160.5211 C.ar    1  UNL1        0.0154
     10 C         140.7271  144.8900  161.9579 C.ar    1  UNL1        0.0552
     11 N         139.9862  145.7379  162.9488 N.pl3   1  UNL1       -0.3560
     12 H         139.5530  146.5722  162.6562 H       1  UNL1        0.1424
     13 H         139.9330  145.4601  163.8918 H       1  UNL1        0.1424
     14 C         142.9502  142.3464  158.9850 C.ar    1  UNL1        0.0295
     15 C         142.3690  141.2258  158.1746 C.ar    1  UNL1        0.0070
     16 C         143.4621  140.6571  157.3192 C.ar    1  UNL1        0.0075
     17 C         144.7188  141.4262  157.6009 C.ar    1  UNL1        0.0354
     18 S         144.4024  142.4702  158.6305 S.2     1  UNL1       -0.0864
     19 C         139.9000  141.1071  168.6270 C.ar    1  UNL1        0.0025
     20 C         140.3080  142.5081  168.2796 C.ar    1  UNL1       -0.0023
     21 C         140.3891  142.9313  166.8429 C.ar    1  UNL1        0.0043
     22 C         140.0621  141.9535  165.7534 C.ar    1  UNL1        0.0537
     23 C         139.6540  140.5525  166.1007 C.ar    1  UNL1        0.0043
     24 C         139.5729  140.1293  167.5375 C.ar    1  UNL1       -0.0023
     25 C         139.8189  140.6839  170.0637 C.3     1  UNL1        0.1740
     26 N         138.6785  139.8286  170.5305 N.3     1  UNL1       -0.3100
     27 H         138.7822  139.6380  171.5271 H       1  UNL1        0.1196
     28 H         138.6798  138.9489  170.0142 H       1  UNL1        0.1196
     29 C         140.8783  141.1160  171.0338 C.2     1  UNL1        0.3354
     30 O         140.5829  142.1911  172.0373 O.2     1  UNL1       -0.2482
     31 O         142.2331  140.4730  171.0003 O.3     1  UNL1       -0.4474
     32 C         143.5761  142.3701  169.8394 C.3     1  UNL1        0.0513
     33 C         143.2477  140.9139  169.9873 C.3     1  UNL1        0.2086
@<TRIPOS>BOND
     1    32    33    1
     2    33    31    1
     3    31    29    1
     4    29    30    2
     5    29    25    1
     6    25    26    1
     7    25    19    1
     8    19    20   ar
     9    20    21   ar
    10    21    22   ar
    11    22     1    1
    12     1     2    2
    13     1     3   am
    14     3     5    1
    15     5     6   ar
    16     6     7   ar
    17     7    14    1
    18    14    15   ar
    19    15    16   ar
    20    16    17   ar
    21    17    18   ar
    22     7     8   ar
    23     8     9   ar
    24     9    10   ar
    25    10    11    1
    26    22    23   ar
    27    23    24   ar
    28    24    19   ar
    29    10     5   ar
    30    18    14   ar
    31    26    27    1
    32    26    28    1
    33     3     4    1
    34    11    12    1
    35    11    13    1
@<TRIPOS>MOLECULE
*****
 33 35 0 0 0
SMALL
GASTEIGER

@<TRIPOS>ATOM
      1 C         139.1050  140.6063  164.3983 C.2     1  UNL1        0.2495
      2 O         138.1629  139.5985  163.8094 O.2     1  UNL1       -0.2698
      3 N         139.8261  141.5709  163.5042 N.am    1  UNL1       -0.2794
      4 H         140.4445  142.2323  163.8907 H       1  UNL1        0.1552
      5 C         139.6052  141.5277  162.0212 C.ar    1  UNL1        0.0636
      6 C         140.3079  140.4973  161.1879 C.ar    1  UNL1        0.0164
      7 C         140.0870  140.4541  159.7049 C.ar    1  UNL1        0.0073
      8 C         139.1633  141.4415  159.0552 C.ar    1  UNL1        0.0018
      9 C         138.4606  142.4719  159.8885 C.ar    1  UNL1        0.0154
     10 C         138.6815  142.5150  161.3715 C.ar    1  UNL1        0.0552
     11 N         137.9788  143.5454  162.2048 N.pl3   1  UNL1       -0.3560
     12 H         137.3726  144.1934  161.7784 H       1  UNL1        0.1424
     13 H         138.1239  143.5737  163.1781 H       1  UNL1        0.1424
     14 C         140.7897  139.4237  158.8716 C.ar    1  UNL1        0.0295
     15 C         140.1819  138.6303  157.7530 C.ar    1  UNL1        0.0070
     16 C         141.2401  137.7220  157.2006 C.ar    1  UNL1        0.0075
     17 C         142.5019  137.9541  157.9778 C.ar    1  UNL1        0.0354
     18 S         142.2235  139.0058  159.0105 S.2     1  UNL1       -0.0864
     19 C         139.7679  140.7357  168.8473 C.ar    1  UNL1        0.0025
     20 C         140.3402  141.8111  167.9722 C.ar    1  UNL1       -0.0023
     21 C         140.1192  141.7680  166.4892 C.ar    1  UNL1        0.0043
     22 C         139.3260  140.6494  165.8813 C.ar    1  UNL1        0.0537
     23 C         138.7536  139.5741  166.7565 C.ar    1  UNL1        0.0043
     24 C         138.9746  139.6172  168.2395 C.ar    1  UNL1       -0.0023
     25 C         139.9888  140.7789  170.3303 C.3     1  UNL1        0.1740
     26 N         139.7633  139.5486  171.1583 N.3     1  UNL1       -0.3100
     27 H         139.9593  139.7571  172.1374 H       1  UNL1        0.1196
     28 H         140.3838  138.8050  170.8383 H       1  UNL1        0.1196
     29 C         140.4353  142.0523  170.9854 C.2     1  UNL1        0.3354
     30 O         139.4603  143.1745  171.1858 O.2     1  UNL1       -0.2482
     31 O         141.8567  142.2035  171.4400 O.3     1  UNL1       -0.4474
     32 C         143.6954  142.4174  169.6169 C.3     1  UNL1        0.0513
     33 C         142.9692  141.5942  170.6392 C.3     1  UNL1        0.2086
@<TRIPOS>BOND
     1    32    33    1
     2    33    31    1
     3    31    29    1
     4    29    30    2
     5    29    25    1
     6    25    26    1
     7    25    19    1
     8    19    20   ar
     9    20    21   ar
    10    21    22   ar
    11    22     1    1
    12     1     2    2
    13     1     3   am
    14     3     5    1
    15     5     6   ar
    16     6     7   ar
    17     7    14    1
    18    14    15   ar
    19    15    16   ar
    20    16    17   ar
    21    17    18   ar
    22     7     8   ar
    23     8     9   ar
    24     9    10   ar
    25    10    11    1
    26    22    23   ar
    27    23    24   ar
    28    24    19   ar
    29    10     5   ar
    30    18    14   ar
    31    26    27    1
    32    26    28    1
    33     3     4    1
    34    11    12    1
    35    11    13    1
