@<TRIPOS>MOLECULE
*****
 30 34 0 0 0
SMALL
GASTEIGER

@<TRIPOS>ATOM
      1 C         142.5959  142.9797  162.2877 C.ar    1  UNL1        0.1522
      2 C         141.5912  143.8000  163.0412 C.ar    1  UNL1        0.0715
      3 C         140.7002  144.7561  162.3051 C.ar    1  UNL1        0.1346
      4 N         140.8139  144.8920  160.8156 N.ar    1  UNL1       -0.1980
      5 N         140.0766  145.7452  159.8264 N.ar    1  UNL1       -0.1602
      6 C         140.6256  145.4521  158.4616 C.ar    1  UNL1        0.1339
      7 C         141.7022  144.4179  158.6073 C.ar    1  UNL1        0.1250
      8 C         141.8186  144.0717  160.0621 C.ar    1  UNL1        0.1778
      9 N         142.7096  143.1156  160.7982 N.ar    1  UNL1       -0.2082
     10 C         141.5278  139.0981  165.0279 C.ar    1  UNL1        0.0518
     11 C         142.7476  138.4216  165.5797 C.ar    1  UNL1        0.0148
     12 C         144.1115  138.9602  165.2638 C.ar    1  UNL1        0.0028
     13 C         144.2556  140.1751  164.3961 C.ar    1  UNL1        0.0177
     14 C         145.4605  140.9289  163.9167 C.ar    1  UNL1        0.0205
     15 C         144.9855  142.0713  163.0685 C.ar    1  UNL1        0.0814
     16 N         143.4869  142.0235  163.0237 N.ar    1  UNL1       -0.2902
     17 C         143.0359  140.8516  163.8442 C.ar    1  UNL1        0.0666
     18 C         141.6720  140.3131  164.1601 C.ar    1  UNL1        0.0322
     19 C         137.9210  138.7352  166.6431 C.3     1  UNL1        0.0949
     20 C         139.2849  139.2737  166.3272 C.2     1  UNL1        0.2266
     21 O         139.7697  140.5265  166.9948 O.2     1  UNL1       -0.2748
     22 N         140.1639  138.5596  165.3438 N.am    1  UNL1       -0.2839
     23 H         139.8457  137.7374  164.9057 H       1  UNL1        0.1549
     24 N         139.6955  145.5764  163.0586 N.pl3   1  UNL1       -0.3196
     25 H         139.5462  146.5183  162.8140 H       1  UNL1        0.1481
     26 C         138.9183  144.9617  164.1846 C.3     1  UNL1        0.0705
     27 C         138.5750  144.8983  165.6434 C.3     1  UNL1        0.0212
     28 C         137.9155  143.9604  164.6763 C.3     1  UNL1        0.0212
     29 C         142.5191  143.8326  157.4936 C.1     1  UNL1        0.1052
     30 N         143.3359  143.2473  156.3800 N.1     1  UNL1       -0.1907
@<TRIPOS>BOND
     1    19    20    1
     2    20    21    2
     3    20    22   am
     4    22    10    1
     5    10    11   ar
     6    11    12   ar
     7    12    13   ar
     8    13    14   ar
     9    14    15   ar
    10    15    16   ar
    11    16     1    1
    12     1     2   ar
    13     2     3   ar
    14     3    24    1
    15    24    26    1
    16    26    27    1
    17    27    28    1
    18     3     4   ar
    19     4     5   ar
    20     5     6   ar
    21     6     7   ar
    22     7    29    1
    23    29    30    3
    24     7     8   ar
    25     8     9   ar
    26    16    17   ar
    27    17    18   ar
    28    18    10   ar
    29    17    13   ar
    30     9     1   ar
    31    28    26    1
    32     8     4   ar
    33    22    23    1
    34    24    25    1
@<TRIPOS>MOLECULE
*****
 30 34 0 0 0
SMALL
GASTEIGER

@<TRIPOS>ATOM
      1 C         141.0569  142.0705  166.1884 C.ar    1  UNL1        0.1522
      2 C         141.8388  141.0284  165.4450 C.ar    1  UNL1        0.0715
      3 C         142.5316  139.9316  166.1981 C.ar    1  UNL1        0.1346
      4 N         142.4424  139.8769  167.6944 N.ar    1  UNL1       -0.1980
      5 N         143.0154  138.9226  168.6998 N.ar    1  UNL1       -0.1602
      6 C         142.5876  139.3749  170.0645 C.ar    1  UNL1        0.1339
      7 C         141.7501  140.6087  169.9026 C.ar    1  UNL1        0.1250
      8 C         141.6604  140.9190  168.4378 C.ar    1  UNL1        0.1778
      9 N         140.9676  142.0157  167.6847 N.ar    1  UNL1       -0.2082
     10 C         142.1382  144.1921  161.9403 C.ar    1  UNL1        0.0518
     11 C         141.1582  145.2613  161.5575 C.ar    1  UNL1        0.0148
     12 C         139.9979  145.5718  162.4560 C.ar    1  UNL1        0.0028
     13 C         139.8175  144.8131  163.7373 C.ar    1  UNL1        0.0177
     14 C         138.7785  144.8973  164.8159 C.ar    1  UNL1        0.0205
     15 C         139.1163  143.8802  165.8654 C.ar    1  UNL1        0.0814
     16 N         140.3641  143.1673  165.4354 N.ar    1  UNL1       -0.2902
     17 C         140.7974  143.7439  164.1201 C.ar    1  UNL1        0.0666
     18 C         141.9577  143.4334  163.2216 C.ar    1  UNL1        0.0322
     19 C         144.3884  142.4042  159.2037 C.3     1  UNL1        0.0949
     20 C         143.2281  142.7147  160.1021 C.2     1  UNL1        0.2266
     21 O         141.9974  141.8581  160.0609 O.2     1  UNL1       -0.2748
     22 N         143.2985  143.8817  161.0419 N.am    1  UNL1       -0.2839
     23 H         144.1062  144.4438  161.0689 H       1  UNL1        0.1549
     24 N         143.3136  138.8896  165.4547 N.pl3   1  UNL1       -0.3196
     25 H         143.4478  137.9987  165.8516 H       1  UNL1        0.1481
     26 C         143.8910  139.2048  164.1068 C.3     1  UNL1        0.0705
     27 C         144.0351  138.8854  162.6483 C.3     1  UNL1        0.0212
     28 C         144.7471  140.0702  163.2304 C.3     1  UNL1        0.0212
     29 C         141.1141  141.3943  171.0108 C.1     1  UNL1        0.1052
     30 N         140.4780  142.1800  172.1191 N.1     1  UNL1       -0.1907
@<TRIPOS>BOND
     1    19    20    1
     2    20    21    2
     3    20    22   am
     4    22    10    1
     5    10    11   ar
     6    11    12   ar
     7    12    13   ar
     8    13    14   ar
     9    14    15   ar
    10    15    16   ar
    11    16     1    1
    12     1     2   ar
    13     2     3   ar
    14     3    24    1
    15    24    26    1
    16    26    27    1
    17    27    28    1
    18     3     4   ar
    19     4     5   ar
    20     5     6   ar
    21     6     7   ar
    22     7    29    1
    23    29    30    3
    24     7     8   ar
    25     8     9   ar
    26    16    17   ar
    27    17    18   ar
    28    18    10   ar
    29    17    13   ar
    30     9     1   ar
    31    28    26    1
    32     8     4   ar
    33    22    23    1
    34    24    25    1
@<TRIPOS>MOLECULE
*****
 30 34 0 0 0
SMALL
GASTEIGER

@<TRIPOS>ATOM
      1 C         141.0304  140.5278  165.3977 C.ar    1  UNL1        0.1522
      2 C         142.1617  141.4008  164.9417 C.ar    1  UNL1        0.0715
      3 C         143.0099  142.1171  165.9503 C.ar    1  UNL1        0.1346
      4 N         142.7268  141.9605  167.4150 N.ar    1  UNL1       -0.1980
      5 N         143.3867  142.5376  168.6322 N.ar    1  UNL1       -0.1602
      6 C         142.6632  142.0212  169.8405 C.ar    1  UNL1        0.1339
      7 C         141.5562  141.1250  169.3701 C.ar    1  UNL1        0.1250
      8 C         141.5955  141.0874  167.8711 C.ar    1  UNL1        0.1778
      9 N         140.7474  140.3711  166.8624 N.ar    1  UNL1       -0.2082
     10 C         138.9109  142.1209  161.3129 C.ar    1  UNL1        0.0518
     11 C         138.1443  141.0478  160.5982 C.ar    1  UNL1        0.0148
     12 C         138.0948  139.6589  161.1624 C.ar    1  UNL1        0.0028
     13 C         138.8120  139.3429  162.4413 C.ar    1  UNL1        0.0177
     14 C         138.9418  138.0752  163.2326 C.ar    1  UNL1        0.0205
     15 C         139.7886  138.3648  164.4364 C.ar    1  UNL1        0.0814
     16 N         140.1822  139.8114  164.3891 N.ar    1  UNL1       -0.2902
     17 C         139.5786  140.4160  163.1561 C.ar    1  UNL1        0.0666
     18 C         139.6280  141.8049  162.5919 C.ar    1  UNL1        0.0322
     19 C         140.2667  145.4017  159.5387 C.3     1  UNL1        0.0949
     20 C         140.2173  144.0127  160.1029 C.2     1  UNL1        0.2266
     21 O         141.4249  143.1267  160.0214 O.2     1  UNL1       -0.2748
     22 N         138.9603  143.5098  160.7487 N.am    1  UNL1       -0.2839
     23 H         138.1677  144.0914  160.8022 H       1  UNL1        0.1549
     24 N         144.1412  142.9901  165.4942 N.pl3   1  UNL1       -0.3196
     25 H         144.9796  143.0186  166.0095 H       1  UNL1        0.1481
     26 C         143.9952  143.8197  164.2532 C.3     1  UNL1        0.0705
     27 C         143.5728  145.0945  163.5850 C.3     1  UNL1        0.0212
     28 C         144.1647  143.9819  162.7716 C.3     1  UNL1        0.0212
     29 C         140.5811  140.3945  170.2451 C.1     1  UNL1        0.1052
     30 N         139.6060  139.6641  171.1201 N.1     1  UNL1       -0.1907
@<TRIPOS>BOND
     1    19    20    1
     2    20    21    2
     3    20    22   am
     4    22    10    1
     5    10    11   ar
     6    11    12   ar
     7    12    13   ar
     8    13    14   ar
     9    14    15   ar
    10    15    16   ar
    11    16     1    1
    12     1     2   ar
    13     2     3   ar
    14     3    24    1
    15    24    26    1
    16    26    27    1
    17    27    28    1
    18     3     4   ar
    19     4     5   ar
    20     5     6   ar
    21     6     7   ar
    22     7    29    1
    23    29    30    3
    24     7     8   ar
    25     8     9   ar
    26    16    17   ar
    27    17    18   ar
    28    18    10   ar
    29    17    13   ar
    30     9     1   ar
    31    28    26    1
    32     8     4   ar
    33    22    23    1
    34    24    25    1
@<TRIPOS>MOLECULE
*****
 30 34 0 0 0
SMALL
GASTEIGER

@<TRIPOS>ATOM
      1 C         142.4732  142.2702  162.4960 C.ar    1  UNL1        0.1522
      2 C         141.5722  143.2520  163.1847 C.ar    1  UNL1        0.0715
      3 C         140.9854  144.3985  162.4158 C.ar    1  UNL1        0.1346
      4 N         141.2996  144.5633  160.9584 N.ar    1  UNL1       -0.1980
      5 N         140.8715  145.5867  159.9488 N.ar    1  UNL1       -0.1602
      6 C         141.5079  145.2375  158.6362 C.ar    1  UNL1        0.1339
      7 C         142.3294  143.9982  158.8345 C.ar    1  UNL1        0.1250
      8 C         142.2007  143.5815  160.2697 C.ar    1  UNL1        0.1778
      9 N         142.7874  142.4350  161.0385 N.ar    1  UNL1       -0.2082
     10 C         141.7641  140.8222  167.0913 C.ar    1  UNL1        0.0518
     11 C         142.5682  139.6077  167.4496 C.ar    1  UNL1        0.0148
     12 C         143.4687  138.9766  166.4294 C.ar    1  UNL1        0.0028
     13 C         143.5652  139.5600  165.0509 C.ar    1  UNL1        0.0177
     14 C         144.3611  139.1585  163.8446 C.ar    1  UNL1        0.0205
     15 C         144.0489  140.1249  162.7406 C.ar    1  UNL1        0.0814
     16 N         143.0601  141.1236  163.2647 N.ar    1  UNL1       -0.2902
     17 C         142.7611  140.7745  164.6926 C.ar    1  UNL1        0.0666
     18 C         141.8606  141.4056  165.7128 C.ar    1  UNL1        0.0322
     19 C         140.5160  143.0832  170.1046 C.3     1  UNL1        0.0949
     20 C         141.4166  142.4521  169.0844 C.2     1  UNL1        0.2266
     21 O         142.8701  142.8197  169.0373 O.2     1  UNL1       -0.2748
     22 N         140.8636  141.4534  168.1114 N.am    1  UNL1       -0.2839
     23 H         139.9096  141.2121  168.1424 H       1  UNL1        0.1549
     24 N         140.0844  145.3802  163.1045 N.pl3   1  UNL1       -0.3196
     25 H         140.1326  146.3367  162.8763 H       1  UNL1        0.1481
     26 C         139.1098  144.9048  164.1409 C.3     1  UNL1        0.0705
     27 C         138.6148  144.9077  165.5568 C.3     1  UNL1        0.0212
     28 C         137.9168  144.0784  164.5201 C.3     1  UNL1        0.0212
     29 C         143.1377  143.2984  157.7824 C.1     1  UNL1        0.1052
     30 N         143.9460  142.5987  156.7303 N.1     1  UNL1       -0.1907
@<TRIPOS>BOND
     1    19    20    1
     2    20    21    2
     3    20    22   am
     4    22    10    1
     5    10    11   ar
     6    11    12   ar
     7    12    13   ar
     8    13    14   ar
     9    14    15   ar
    10    15    16   ar
    11    16     1    1
    12     1     2   ar
    13     2     3   ar
    14     3    24    1
    15    24    26    1
    16    26    27    1
    17    27    28    1
    18     3     4   ar
    19     4     5   ar
    20     5     6   ar
    21     6     7   ar
    22     7    29    1
    23    29    30    3
    24     7     8   ar
    25     8     9   ar
    26    16    17   ar
    27    17    18   ar
    28    18    10   ar
    29    17    13   ar
    30     9     1   ar
    31    28    26    1
    32     8     4   ar
    33    22    23    1
    34    24    25    1
@<TRIPOS>MOLECULE
*****
 30 34 0 0 0
SMALL
GASTEIGER

@<TRIPOS>ATOM
      1 C         140.7288  141.6610  166.2462 C.ar    1  UNL1        0.1522
      2 C         141.5456  140.6296  165.5258 C.ar    1  UNL1        0.0715
      3 C         142.3571  139.6374  166.3049 C.ar    1  UNL1        0.1346
      4 N         142.3517  139.6766  167.8044 N.ar    1  UNL1       -0.1980
      5 N         143.0468  138.8346  168.8329 N.ar    1  UNL1       -0.1602
      6 C         142.6595  139.3457  170.1890 C.ar    1  UNL1        0.1339
      7 C         141.7251  140.5035  169.9986 C.ar    1  UNL1        0.1250
      8 C         141.5349  140.7081  168.5248 C.ar    1  UNL1        0.1778
      9 N         140.7235  141.7003  167.7457 N.ar    1  UNL1       -0.2082
     10 C         138.7334  141.3630  161.8139 C.ar    1  UNL1        0.0518
     11 C         137.9959  142.6092  161.4224 C.ar    1  UNL1        0.0148
     12 C         137.9358  143.7730  162.3668 C.ar    1  UNL1        0.0028
     13 C         138.6131  143.6907  163.7026 C.ar    1  UNL1        0.0177
     14 C         138.7242  144.6696  164.8337 C.ar    1  UNL1        0.0205
     15 C         139.5302  144.0285  165.9242 C.ar    1  UNL1        0.0814
     16 N         139.9174  142.6533  165.4671 N.ar    1  UNL1       -0.2902
     17 C         139.3506  142.4446  164.0940 C.ar    1  UNL1        0.0666
     18 C         139.4107  141.2807  163.1497 C.ar    1  UNL1        0.0322
     19 C         140.1425  138.6921  159.2389 C.3     1  UNL1        0.0949
     20 C         140.0824  139.8560  160.1833 C.2     1  UNL1        0.2266
     21 O         141.3112  140.6766  160.4414 O.2     1  UNL1       -0.2748
     22 N         138.7935  140.1992  160.8695 N.am    1  UNL1       -0.2839
     23 H         137.9870  139.6606  160.7000 H       1  UNL1        0.1549
     24 N         143.1739  138.6060  165.5845 N.pl3   1  UNL1       -0.3196
     25 H         143.7936  138.0296  166.0875 H       1  UNL1        0.1481
     26 C         143.0464  138.4526  164.0979 C.3     1  UNL1        0.0705
     27 C         143.6244  138.6039  162.7220 C.3     1  UNL1        0.0212
     28 C         142.2476  138.0355  162.8987 C.3     1  UNL1        0.0212
     29 C         141.0921  141.3145  171.0902 C.1     1  UNL1        0.1052
     30 N         140.4591  142.1254  172.1818 N.1     1  UNL1       -0.1907
@<TRIPOS>BOND
     1    19    20    1
     2    20    21    2
     3    20    22   am
     4    22    10    1
     5    10    11   ar
     6    11    12   ar
     7    12    13   ar
     8    13    14   ar
     9    14    15   ar
    10    15    16   ar
    11    16     1    1
    12     1     2   ar
    13     2     3   ar
    14     3    24    1
    15    24    26    1
    16    26    27    1
    17    27    28    1
    18     3     4   ar
    19     4     5   ar
    20     5     6   ar
    21     6     7   ar
    22     7    29    1
    23    29    30    3
    24     7     8   ar
    25     8     9   ar
    26    16    17   ar
    27    17    18   ar
    28    18    10   ar
    29    17    13   ar
    30     9     1   ar
    31    28    26    1
    32     8     4   ar
    33    22    23    1
    34    24    25    1
@<TRIPOS>MOLECULE
*****
 30 34 0 0 0
SMALL
GASTEIGER

@<TRIPOS>ATOM
      1 C         143.8437  142.4968  160.9919 C.ar    1  UNL1        0.1522
      2 C         144.5474  142.2267  159.6951 C.ar    1  UNL1        0.0715
      3 C         144.0974  142.9143  158.4402 C.ar    1  UNL1        0.1346
      4 N         142.9438  143.8721  158.4822 N.ar    1  UNL1       -0.1980
      5 N         142.2807  144.6920  157.4154 N.ar    1  UNL1       -0.1602
      6 C         141.1672  145.4689  158.0530 C.ar    1  UNL1        0.1339
      7 C         141.1421  145.1292  159.5138 C.ar    1  UNL1        0.1250
      8 C         142.2401  144.1422  159.7790 C.ar    1  UNL1        0.1778
      9 N         142.6900  143.4546  161.0339 N.ar    1  UNL1       -0.2082
     10 C         141.4688  139.5002  164.0079 C.ar    1  UNL1        0.0518
     11 C         142.3156  139.0396  165.1571 C.ar    1  UNL1        0.0148
     12 C         143.7352  139.5086  165.2779 C.ar    1  UNL1        0.0028
     13 C         144.3081  140.4383  164.2495 C.ar    1  UNL1        0.0177
     14 C         145.6638  141.0640  164.1063 C.ar    1  UNL1        0.0205
     15 C         145.6549  141.9113  162.8686 C.ar    1  UNL1        0.0814
     16 N         144.2936  141.8093  162.2468 N.ar    1  UNL1       -0.2902
     17 C         143.4613  140.8989  163.1003 C.ar    1  UNL1        0.0666
     18 C         142.0416  140.4298  162.9795 C.ar    1  UNL1        0.0322
     19 C         138.2649  137.5319  162.7387 C.3     1  UNL1        0.0949
     20 C         139.6845  138.0009  162.8596 C.2     1  UNL1        0.2266
     21 O         140.7396  137.4397  161.9529 O.2     1  UNL1       -0.2748
     22 N         140.0491  139.0311  163.8870 N.am    1  UNL1       -0.2839
     23 H         139.3567  139.3994  164.4821 H       1  UNL1        0.1549
     24 N         144.8012  142.6441  157.1434 N.pl3   1  UNL1       -0.3196
     25 H         144.2804  142.4263  156.3368 H       1  UNL1        0.1481
     26 C         146.2983  142.7058  157.0754 C.3     1  UNL1        0.0705
     27 C         147.6115  143.0955  157.6867 C.3     1  UNL1        0.0212
     28 C         147.5783  142.4231  156.3463 C.3     1  UNL1        0.0212
     29 C         140.1867  145.6796  160.5308 C.1     1  UNL1        0.1052
     30 N         139.2313  146.2301  161.5478 N.1     1  UNL1       -0.1907
@<TRIPOS>BOND
     1    19    20    1
     2    20    21    2
     3    20    22   am
     4    22    10    1
     5    10    11   ar
     6    11    12   ar
     7    12    13   ar
     8    13    14   ar
     9    14    15   ar
    10    15    16   ar
    11    16     1    1
    12     1     2   ar
    13     2     3   ar
    14     3    24    1
    15    24    26    1
    16    26    27    1
    17    27    28    1
    18     3     4   ar
    19     4     5   ar
    20     5     6   ar
    21     6     7   ar
    22     7    29    1
    23    29    30    3
    24     7     8   ar
    25     8     9   ar
    26    16    17   ar
    27    17    18   ar
    28    18    10   ar
    29    17    13   ar
    30     9     1   ar
    31    28    26    1
    32     8     4   ar
    33    22    23    1
    34    24    25    1
@<TRIPOS>MOLECULE
*****
 30 34 0 0 0
SMALL
GASTEIGER

@<TRIPOS>ATOM
      1 C         141.7163  142.5690  160.7697 C.ar    1  UNL1        0.1522
      2 C         142.6670  141.6896  161.5266 C.ar    1  UNL1        0.0715
      3 C         143.5344  140.7133  160.7888 C.ar    1  UNL1        0.1346
      4 N         143.4513  140.6164  159.2943 N.ar    1  UNL1       -0.1980
      5 N         144.1757  139.7553  158.3025 N.ar    1  UNL1       -0.1602
      6 C         143.6727  140.1025  156.9326 C.ar    1  UNL1        0.1339
      7 C         142.6375  141.1782  157.0778 C.ar    1  UNL1        0.1250
      8 C         142.5006  141.4958  158.5374 C.ar    1  UNL1        0.1778
      9 N         141.6331  142.4721  159.2751 N.ar    1  UNL1       -0.2082
     10 C         138.2599  141.8551  164.1252 C.ar    1  UNL1        0.0518
     11 C         137.6379  143.1342  164.6017 C.ar    1  UNL1        0.0148
     12 C         138.1005  144.4469  164.0424 C.ar    1  UNL1        0.0028
     13 C         139.1851  144.4805  163.0068 C.ar    1  UNL1        0.0177
     14 C         139.8424  145.6150  162.2782 C.ar    1  UNL1        0.0205
     15 C         140.8706  145.0371  161.3515 C.ar    1  UNL1        0.0814
     16 N         140.8488  143.5454  161.5073 N.ar    1  UNL1       -0.2902
     17 C         139.8070  143.2014  162.5303 C.ar    1  UNL1        0.0666
     18 C         139.3444  141.8887  163.0896 C.ar    1  UNL1        0.0322
     19 C         138.0071  138.6510  166.4532 C.3     1  UNL1        0.0949
     20 C         138.4697  139.9637  165.8940 C.2     1  UNL1        0.2266
     21 O         139.6047  140.6977  166.5443 O.2     1  UNL1       -0.2748
     22 N         137.7973  140.5424  164.6845 N.am    1  UNL1       -0.2839
     23 H         137.0523  140.0606  164.2577 H       1  UNL1        0.1549
     24 N         144.4851  139.8339  161.5457 N.pl3   1  UNL1       -0.3196
     25 H         144.8891  139.0517  161.1050 H       1  UNL1        0.1481
     26 C         144.8202  140.1461  162.9740 C.3     1  UNL1        0.0705
     27 C         145.4872  141.0260  163.9894 C.3     1  UNL1        0.0212
     28 C         144.7337  139.8071  164.4327 C.3     1  UNL1        0.0212
     29 C         141.8733  141.8231  155.9597 C.1     1  UNL1        0.1052
     30 N         141.1090  142.4680  154.8417 N.1     1  UNL1       -0.1907
@<TRIPOS>BOND
     1    19    20    1
     2    20    21    2
     3    20    22   am
     4    22    10    1
     5    10    11   ar
     6    11    12   ar
     7    12    13   ar
     8    13    14   ar
     9    14    15   ar
    10    15    16   ar
    11    16     1    1
    12     1     2   ar
    13     2     3   ar
    14     3    24    1
    15    24    26    1
    16    26    27    1
    17    27    28    1
    18     3     4   ar
    19     4     5   ar
    20     5     6   ar
    21     6     7   ar
    22     7    29    1
    23    29    30    3
    24     7     8   ar
    25     8     9   ar
    26    16    17   ar
    27    17    18   ar
    28    18    10   ar
    29    17    13   ar
    30     9     1   ar
    31    28    26    1
    32     8     4   ar
    33    22    23    1
    34    24    25    1
@<TRIPOS>MOLECULE
*****
 30 34 0 0 0
SMALL
GASTEIGER

@<TRIPOS>ATOM
      1 C         140.1831  142.1201  165.5020 C.ar    1  UNL1        0.1522
      2 C         140.9712  140.9390  165.0184 C.ar    1  UNL1        0.0715
      3 C         141.5783  139.9873  166.0062 C.ar    1  UNL1        0.1346
      4 N         141.3974  140.2167  167.4774 N.ar    1  UNL1       -0.1980
      5 N         141.8750  139.4551  168.6782 N.ar    1  UNL1       -0.1602
      6 C         141.3821  140.1656  169.9039 C.ar    1  UNL1        0.1339
      7 C         140.5999  141.3663  169.4607 C.ar    1  UNL1        0.1250
      8 C         140.6094  141.3979  167.9610 C.ar    1  UNL1        0.1778
      9 N         140.0022  142.3495  166.9733 N.ar    1  UNL1       -0.2082
     10 C         141.9740  144.0113  161.3871 C.ar    1  UNL1        0.0518
     11 C         141.0091  144.9327  160.7017 C.ar    1  UNL1        0.0148
     12 C         139.6564  145.1821  161.2999 C.ar    1  UNL1        0.0028
     13 C         139.2685  144.5101  162.5836 C.ar    1  UNL1        0.0177
     14 C         138.0147  144.5627  163.4052 C.ar    1  UNL1        0.0205
     15 C         138.2046  143.6739  164.5985 C.ar    1  UNL1        0.0814
     16 N         139.5759  143.0718  164.5144 N.ar    1  UNL1       -0.2902
     17 C         140.2334  143.5887  163.2691 C.ar    1  UNL1        0.0666
     18 C         141.5862  143.3393  162.6708 C.ar    1  UNL1        0.0322
     19 C         144.8363  142.5167  159.0799 C.3     1  UNL1        0.0949
     20 C         143.4836  142.7661  159.6782 C.2     1  UNL1        0.2266
     21 O         142.2876  142.0196  159.1657 O.2     1  UNL1       -0.2748
     22 N         143.3267  143.7619  160.7889 N.am    1  UNL1       -0.2839
     23 H         144.1117  144.2518  161.1253 H       1  UNL1        0.1549
     24 N         142.3664  138.8061  165.5226 N.pl3   1  UNL1       -0.3196
     25 H         143.1583  138.5043  166.0236 H       1  UNL1        0.1481
     26 C         141.9479  138.0849  164.2758 C.3     1  UNL1        0.0705
     27 C         142.1015  137.8379  162.8043 C.3     1  UNL1        0.0212
     28 C         141.0693  137.0825  163.5877 C.3     1  UNL1        0.0212
     29 C         139.9265  142.3608  170.3593 C.1     1  UNL1        0.1052
     30 N         139.2530  143.3552  171.2579 N.1     1  UNL1       -0.1907
@<TRIPOS>BOND
     1    19    20    1
     2    20    21    2
     3    20    22   am
     4    22    10    1
     5    10    11   ar
     6    11    12   ar
     7    12    13   ar
     8    13    14   ar
     9    14    15   ar
    10    15    16   ar
    11    16     1    1
    12     1     2   ar
    13     2     3   ar
    14     3    24    1
    15    24    26    1
    16    26    27    1
    17    27    28    1
    18     3     4   ar
    19     4     5   ar
    20     5     6   ar
    21     6     7   ar
    22     7    29    1
    23    29    30    3
    24     7     8   ar
    25     8     9   ar
    26    16    17   ar
    27    17    18   ar
    28    18    10   ar
    29    17    13   ar
    30     9     1   ar
    31    28    26    1
    32     8     4   ar
    33    22    23    1
    34    24    25    1
@<TRIPOS>MOLECULE
*****
 30 34 0 0 0
SMALL
GASTEIGER

@<TRIPOS>ATOM
      1 C         142.7341  142.2818  162.6731 C.ar    1  UNL1        0.1522
      2 C         143.0986  142.6259  161.2593 C.ar    1  UNL1        0.0715
      3 C         142.3737  143.7278  160.5449 C.ar    1  UNL1        0.1346
      4 N         141.2843  144.4855  161.2442 N.ar    1  UNL1       -0.1980
      5 N         140.4007  145.6129  160.7989 N.ar    1  UNL1       -0.1602
      6 C         139.4900  145.9655  161.9375 C.ar    1  UNL1        0.1339
      7 C         139.8108  145.0560  163.0865 C.ar    1  UNL1        0.1250
      8 C         140.9197  144.1413  162.6579 C.ar    1  UNL1        0.1778
      9 N         141.6446  143.0395  163.3723 N.ar    1  UNL1       -0.2082
     10 C         141.6000  139.8268  166.7231 C.ar    1  UNL1        0.0518
     11 C         142.6256  138.7935  167.0840 C.ar    1  UNL1        0.0148
     12 C         143.8408  138.6105  166.2238 C.ar    1  UNL1        0.0028
     13 C         144.0303  139.4609  165.0028 C.ar    1  UNL1        0.0177
     14 C         145.1185  139.5080  163.9715 C.ar    1  UNL1        0.0205
     15 C         144.7654  140.5705  162.9732 C.ar    1  UNL1        0.0814
     16 N         143.4589  141.1800  163.3876 N.ar    1  UNL1       -0.2902
     17 C         143.0046  140.4942  164.6419 C.ar    1  UNL1        0.0666
     18 C         141.7895  140.6771  165.5021 C.ar    1  UNL1        0.0322
     19 C         139.3005  140.8074  169.8055 C.3     1  UNL1        0.0949
     20 C         140.5156  140.6244  168.9453 C.2     1  UNL1        0.2266
     21 O         141.8617  141.0561  169.4472 O.2     1  UNL1       -0.2748
     22 N         140.3848  140.0098  167.5833 N.am    1  UNL1       -0.2839
     23 H         139.5014  139.7265  167.2539 H       1  UNL1        0.1549
     24 N         142.7383  144.0719  159.1312 N.pl3   1  UNL1       -0.3196
     25 H         142.3925  144.8972  158.7206 H       1  UNL1        0.1481
     26 C         143.6296  143.1587  158.3429 C.3     1  UNL1        0.0705
     27 C         144.9750  142.5365  158.1131 C.3     1  UNL1        0.0212
     28 C         143.8281  142.1989  157.2073 C.3     1  UNL1        0.0212
     29 C         139.1404  145.0605  164.4283 C.1     1  UNL1        0.1052
     30 N         138.4700  145.0650  165.7701 N.1     1  UNL1       -0.1907
@<TRIPOS>BOND
     1    19    20    1
     2    20    21    2
     3    20    22   am
     4    22    10    1
     5    10    11   ar
     6    11    12   ar
     7    12    13   ar
     8    13    14   ar
     9    14    15   ar
    10    15    16   ar
    11    16     1    1
    12     1     2   ar
    13     2     3   ar
    14     3    24    1
    15    24    26    1
    16    26    27    1
    17    27    28    1
    18     3     4   ar
    19     4     5   ar
    20     5     6   ar
    21     6     7   ar
    22     7    29    1
    23    29    30    3
    24     7     8   ar
    25     8     9   ar
    26    16    17   ar
    27    17    18   ar
    28    18    10   ar
    29    17    13   ar
    30     9     1   ar
    31    28    26    1
    32     8     4   ar
    33    22    23    1
    34    24    25    1
