@<TRIPOS>MOLECULE
*****
 33 38 0 0 0
SMALL
GASTEIGER

@<TRIPOS>ATOM
      1 N         142.5976  144.6778  161.1013 N.3     1  UNL1       -0.3219
      2 C         142.8060  143.3732  161.8116 C.3     1  UNL1        0.0563
      3 C         142.5546  143.2741  163.2871 C.3     1  UNL1        0.0318
      4 C         142.7629  141.9695  163.9975 C.3     1  UNL1        0.0595
      5 C         143.2227  140.7640  163.2324 C.3     1  UNL1        0.0164
      6 C         143.4741  140.8631  161.7569 C.3     1  UNL1        0.0071
      7 C         143.2657  142.1677  161.0465 C.3     1  UNL1        0.0389
      8 H         142.2871  145.3830  161.7696 H       1  UNL1        0.1188
      9 H         141.8894  144.5610  160.3766 H       1  UNL1        0.1188
     10 N         142.5115  141.8705  165.4730 N.3     1  UNL1       -0.2652
     11 C         143.3713  142.4536  166.5550 C.3     1  UNL1        0.1021
     12 C         142.7473  142.1144  167.8761 C.ar    1  UNL1        0.0266
     13 C         143.1522  142.4251  169.2866 C.ar    1  UNL1        0.1003
     14 N         142.3117  141.9428  170.4317 N.ar    1  UNL1       -0.2086
     15 C         141.0664  141.1501  170.1662 C.ar    1  UNL1        0.2564
     16 N         140.0461  140.5460  171.0851 N.ar    1  UNL1       -0.1084
     17 N         139.0107  139.8620  170.2425 N.ar    1  UNL1       -0.1315
     18 C         139.3909  140.0434  168.8029 C.ar    1  UNL1        0.1476
     19 N         140.6614  140.8395  168.7558 N.ar    1  UNL1       -0.2647
     20 C         141.5019  141.3216  167.6107 C.ar    1  UNL1        0.0603
     21 C         141.3561  141.1709  166.1254 C.3     1  UNL1        0.1171
     22 C         138.6337  139.5205  167.6183 C.3     1  UNL1        0.0592
     23 C         137.7142  138.5034  167.0102 C.3     1  UNL1        0.0080
     24 C         138.2415  139.6321  166.1748 C.3     1  UNL1        0.0080
     25 C         143.5172  142.2667  159.5711 C.ar    1  UNL1        0.0086
     26 C         144.9195  142.4049  159.0569 C.ar    1  UNL1        0.0300
     27 C         145.1709  142.5039  157.5815 C.ar    1  UNL1        0.1672
     28 F         146.5733  142.6421  157.0672 F       1  UNL1       -0.2018
     29 C         144.0201  142.4648  156.6202 C.ar    1  UNL1        0.1696
     30 F         144.2715  142.5639  155.1448 F       1  UNL1       -0.2017
     31 C         142.6177  142.3267  157.1344 C.ar    1  UNL1        0.0612
     32 C         142.3663  142.2276  158.6099 C.ar    1  UNL1        0.1385
     33 F         140.9640  142.0895  159.1241 F       1  UNL1       -0.2044
@<TRIPOS>BOND
     1     2     1    1
     2     2     3    1
     3     3     4    1
     4     4    10    1
     5    10    11    1
     6    11    12    1
     7    12    13   ar
     8    13    14   ar
     9    14    15   ar
    10    15    16   ar
    11    16    17   ar
    12    17    18   ar
    13    18    22    1
    14    22    23    1
    15    23    24    1
    16    18    19   ar
    17    19    20   ar
    18    20    21    1
    19     4     5    1
    20     5     6    1
    21     6     7    1
    22     7    25    1
    23    25    26   ar
    24    26    27   ar
    25    27    28    1
    26    27    29   ar
    27    29    30    1
    28    29    31   ar
    29    31    32   ar
    30    32    33    1
    31     7     2    1
    32    32    25   ar
    33    21    10    1
    34    20    12   ar
    35    19    15   ar
    36    24    22    1
    37     1     8    1
    38     1     9    1
@<TRIPOS>MOLECULE
*****
 33 38 0 0 0
SMALL
GASTEIGER

@<TRIPOS>ATOM
      1 N         147.3052  143.4932  157.6120 N.3     1  UNL1       -0.3219
      2 C         146.4755  142.3478  157.1127 C.3     1  UNL1        0.0563
      3 C         145.3623  141.8035  157.9580 C.3     1  UNL1        0.0318
      4 C         144.5324  140.6580  157.4587 C.3     1  UNL1        0.0595
      5 C         144.8158  140.0568  156.1140 C.3     1  UNL1        0.0164
      6 C         145.9290  140.6010  155.2687 C.3     1  UNL1        0.0071
      7 C         146.7588  141.7465  155.7680 C.3     1  UNL1        0.0389
      8 H         146.9764  143.7739  158.5358 H       1  UNL1        0.1188
      9 H         147.2218  144.2797  156.9679 H       1  UNL1        0.1188
     10 N         143.4193  140.1138  158.3041 N.3     1  UNL1       -0.2652
     11 C         142.0815  139.6504  157.8086 C.3     1  UNL1        0.1021
     12 C         141.2839  139.1876  158.9917 C.ar    1  UNL1        0.0266
     13 C         139.8975  138.6276  159.1105 C.ar    1  UNL1        0.1003
     14 N         139.3559  138.2451  160.4561 N.ar    1  UNL1       -0.2086
     15 C         140.2007  138.4225  161.6827 C.ar    1  UNL1        0.2564
     16 N         139.9388  138.1369  163.1318 N.ar    1  UNL1       -0.1084
     17 N         141.1634  138.5204  163.9085 N.ar    1  UNL1       -0.1315
     18 C         142.1821  139.0430  162.9395 C.ar    1  UNL1        0.1476
     19 N         141.5872  138.9826  161.5639 N.ar    1  UNL1       -0.2647
     20 C         142.1288  139.3651  160.2184 C.ar    1  UNL1        0.0603
     21 C         143.4485  139.9375  159.7935 C.3     1  UNL1        0.1171
     22 C         143.5548  139.5390  163.2855 C.3     1  UNL1        0.0592
     23 C         144.6500  140.5507  163.1215 C.3     1  UNL1        0.0080
     24 C         144.8371  139.3865  164.0486 C.3     1  UNL1        0.0080
     25 C         147.8720  142.2907  154.9226 C.ar    1  UNL1        0.0086
     26 C         149.2547  141.7226  155.0469 C.ar    1  UNL1        0.0300
     27 C         150.3678  142.2668  154.2015 C.ar    1  UNL1        0.1672
     28 F         151.7506  141.6987  154.3258 F       1  UNL1       -0.2018
     29 C         150.0984  143.3790  153.2319 C.ar    1  UNL1        0.1696
     30 F         151.2116  143.9232  152.3865 F       1  UNL1       -0.2017
     31 C         148.7157  143.9472  153.1076 C.ar    1  UNL1        0.0612
     32 C         147.6025  143.4030  153.9530 C.ar    1  UNL1        0.1385
     33 F         146.2198  143.9710  153.8287 F       1  UNL1       -0.2044
@<TRIPOS>BOND
     1     2     1    1
     2     2     3    1
     3     3     4    1
     4     4    10    1
     5    10    11    1
     6    11    12    1
     7    12    13   ar
     8    13    14   ar
     9    14    15   ar
    10    15    16   ar
    11    16    17   ar
    12    17    18   ar
    13    18    22    1
    14    22    23    1
    15    23    24    1
    16    18    19   ar
    17    19    20   ar
    18    20    21    1
    19     4     5    1
    20     5     6    1
    21     6     7    1
    22     7    25    1
    23    25    26   ar
    24    26    27   ar
    25    27    28    1
    26    27    29   ar
    27    29    30    1
    28    29    31   ar
    29    31    32   ar
    30    32    33    1
    31     7     2    1
    32    32    25   ar
    33    21    10    1
    34    20    12   ar
    35    19    15   ar
    36    24    22    1
    37     1     8    1
    38     1     9    1
@<TRIPOS>MOLECULE
*****
 33 38 0 0 0
SMALL
GASTEIGER

@<TRIPOS>ATOM
      1 N         142.5619  146.2367  157.8888 N.3     1  UNL1       -0.3219
      2 C         141.5981  145.0905  157.9737 C.3     1  UNL1        0.0563
      3 C         141.8301  143.9872  158.9631 C.3     1  UNL1        0.0318
      4 C         140.8663  142.8410  159.0481 C.3     1  UNL1        0.0595
      5 C         139.6704  142.7980  158.1437 C.3     1  UNL1        0.0164
      6 C         139.4384  143.9014  157.1543 C.3     1  UNL1        0.0071
      7 C         140.4022  145.0476  157.0693 C.3     1  UNL1        0.0389
      8 H         143.3089  146.1039  158.5706 H       1  UNL1        0.1188
      9 H         142.0715  147.1087  158.0873 H       1  UNL1        0.1188
     10 N         141.0984  141.7377  160.0375 N.3     1  UNL1       -0.2652
     11 C         140.5689  140.3378  159.9374 C.3     1  UNL1        0.1021
     12 C         141.0440  139.5756  161.1388 C.ar    1  UNL1        0.0266
     13 C         140.8334  138.1557  161.5743 C.ar    1  UNL1        0.1003
     14 N         141.4460  137.6647  162.8525 N.ar    1  UNL1       -0.2086
     15 C         142.2690  138.5934  163.6950 C.ar    1  UNL1        0.2564
     16 N         142.9923  138.3950  164.9941 N.ar    1  UNL1       -0.1084
     17 N         143.6498  139.6922  165.3614 N.ar    1  UNL1       -0.1315
     18 C         143.3330  140.6923  164.2893 C.ar    1  UNL1        0.1476
     19 N         142.4796  140.0132  163.2595 N.ar    1  UNL1       -0.2647
     20 C         141.8671  140.5043  161.9813 C.ar    1  UNL1        0.0603
     21 C         141.9007  141.8406  161.3007 C.3     1  UNL1        0.1171
     22 C         143.7893  142.1207  164.2535 C.3     1  UNL1        0.0592
     23 C         144.0688  143.3762  163.4817 C.3     1  UNL1        0.0080
     24 C         144.3003  143.3394  164.9632 C.3     1  UNL1        0.0080
     25 C         140.1701  146.1509  156.0799 C.ar    1  UNL1        0.0086
     26 C         139.2370  147.2760  156.4165 C.ar    1  UNL1        0.0300
     27 C         139.0049  148.3793  155.4271 C.ar    1  UNL1        0.1672
     28 F         138.0717  149.5045  155.7637 F       1  UNL1       -0.2018
     29 C         139.7059  148.3575  154.1013 C.ar    1  UNL1        0.1696
     30 F         139.4738  149.4608  153.1119 F       1  UNL1       -0.2017
     31 C         140.6391  147.2323  153.7646 C.ar    1  UNL1        0.0612
     32 C         140.8711  146.1290  154.7540 C.ar    1  UNL1        0.1385
     33 F         141.8042  145.0038  154.4175 F       1  UNL1       -0.2044
@<TRIPOS>BOND
     1     2     1    1
     2     2     3    1
     3     3     4    1
     4     4    10    1
     5    10    11    1
     6    11    12    1
     7    12    13   ar
     8    13    14   ar
     9    14    15   ar
    10    15    16   ar
    11    16    17   ar
    12    17    18   ar
    13    18    22    1
    14    22    23    1
    15    23    24    1
    16    18    19   ar
    17    19    20   ar
    18    20    21    1
    19     4     5    1
    20     5     6    1
    21     6     7    1
    22     7    25    1
    23    25    26   ar
    24    26    27   ar
    25    27    28    1
    26    27    29   ar
    27    29    30    1
    28    29    31   ar
    29    31    32   ar
    30    32    33    1
    31     7     2    1
    32    32    25   ar
    33    21    10    1
    34    20    12   ar
    35    19    15   ar
    36    24    22    1
    37     1     8    1
    38     1     9    1
@<TRIPOS>MOLECULE
*****
 33 38 0 0 0
SMALL
GASTEIGER

@<TRIPOS>ATOM
      1 N         141.9640  146.2397  157.6400 N.3     1  UNL1       -0.3219
      2 C         140.8900  145.2037  157.4874 C.3     1  UNL1        0.0563
      3 C         140.7367  144.1249  158.5182 C.3     1  UNL1        0.0318
      4 C         139.6627  143.0889  158.3657 C.3     1  UNL1        0.0595
      5 C         138.7420  143.1317  157.1823 C.3     1  UNL1        0.0164
      6 C         138.8953  144.2105  156.1515 C.3     1  UNL1        0.0071
      7 C         139.9693  145.2465  156.3040 C.3     1  UNL1        0.0389
      8 H         142.4914  146.0593  158.4942 H       1  UNL1        0.1188
      9 H         141.5386  147.1653  157.6921 H       1  UNL1        0.1188
     10 N         139.5094  142.0101  159.3966 N.3     1  UNL1       -0.2652
     11 C         139.7155  140.5413  159.1731 C.3     1  UNL1        0.1021
     12 C         139.4566  139.8342  160.4704 C.ar    1  UNL1        0.0266
     13 C         139.5070  138.3840  160.8505 C.ar    1  UNL1        0.1003
     14 N         139.1911  137.9657  162.2560 N.ar    1  UNL1       -0.2086
     15 C         138.8251  138.9975  163.2812 C.ar    1  UNL1        0.2564
     16 N         138.4662  138.8863  164.7335 N.ar    1  UNL1       -0.1084
     17 N         138.1940  140.2677  165.2508 N.ar    1  UNL1       -0.1315
     18 C         138.3847  141.2327  164.1184 C.ar    1  UNL1        0.1476
     19 N         138.7747  140.4477  162.9011 N.ar    1  UNL1       -0.2647
     20 C         139.0905  140.8660  161.4957 C.ar    1  UNL1        0.0603
     21 C         139.1232  142.2108  160.8321 C.3     1  UNL1        0.1171
     22 C         138.2152  142.7213  164.1905 C.3     1  UNL1        0.0592
     23 C         138.4775  144.0266  164.8813 C.3     1  UNL1        0.0080
     24 C         137.6593  143.9944  163.6246 C.3     1  UNL1        0.0080
     25 C         140.1226  146.3253  155.2731 C.ar    1  UNL1        0.0086
     26 C         139.4175  147.6373  155.4501 C.ar    1  UNL1        0.0300
     27 C         139.5708  148.7161  154.4192 C.ar    1  UNL1        0.1672
     28 F         138.8657  150.0283  154.5961 F       1  UNL1       -0.2018
     29 C         140.4290  148.4829  153.2114 C.ar    1  UNL1        0.1696
     30 F         140.5823  149.5617  152.1805 F       1  UNL1       -0.2017
     31 C         141.1341  147.1708  153.0343 C.ar    1  UNL1        0.0612
     32 C         140.9809  146.0920  154.0652 C.ar    1  UNL1        0.1385
     33 F         141.6859  144.7799  153.8883 F       1  UNL1       -0.2044
@<TRIPOS>BOND
     1     2     1    1
     2     2     3    1
     3     3     4    1
     4     4    10    1
     5    10    11    1
     6    11    12    1
     7    12    13   ar
     8    13    14   ar
     9    14    15   ar
    10    15    16   ar
    11    16    17   ar
    12    17    18   ar
    13    18    22    1
    14    22    23    1
    15    23    24    1
    16    18    19   ar
    17    19    20   ar
    18    20    21    1
    19     4     5    1
    20     5     6    1
    21     6     7    1
    22     7    25    1
    23    25    26   ar
    24    26    27   ar
    25    27    28    1
    26    27    29   ar
    27    29    30    1
    28    29    31   ar
    29    31    32   ar
    30    32    33    1
    31     7     2    1
    32    32    25   ar
    33    21    10    1
    34    20    12   ar
    35    19    15   ar
    36    24    22    1
    37     1     8    1
    38     1     9    1
@<TRIPOS>MOLECULE
*****
 33 38 0 0 0
SMALL
GASTEIGER

@<TRIPOS>ATOM
      1 N         140.2294  140.2246  164.8214 N.3     1  UNL1       -0.3219
      2 C         141.5245  140.0156  164.0941 C.3     1  UNL1        0.0563
      3 C         141.5189  139.7025  162.6272 C.3     1  UNL1        0.0318
      4 C         142.8140  139.4934  161.8998 C.3     1  UNL1        0.0595
      5 C         144.1148  139.5974  162.6394 C.3     1  UNL1        0.0164
      6 C         144.1204  139.9105  164.1064 C.3     1  UNL1        0.0071
      7 C         142.8254  140.1196  164.8338 C.3     1  UNL1        0.0389
      8 H         139.4523  140.1176  164.1695 H       1  UNL1        0.1188
      9 H         140.2114  141.1630  165.2208 H       1  UNL1        0.1188
     10 N         142.8082  139.1803  160.4329 N.3     1  UNL1       -0.2652
     11 C         142.0347  138.0797  159.7693 C.3     1  UNL1        0.1021
     12 C         142.3235  138.1321  158.2982 C.ar    1  UNL1        0.0266
     13 C         141.8425  137.2945  157.1506 C.ar    1  UNL1        0.1003
     14 N         142.3136  137.5899  155.7574 N.ar    1  UNL1       -0.2086
     15 C         143.2655  138.7227  155.5119 C.ar    1  UNL1        0.2564
     16 N         143.8983  139.2481  154.2575 N.ar    1  UNL1       -0.1084
     17 N         144.7704  140.4104  154.6299 N.ar    1  UNL1       -0.1315
     18 C         144.6765  140.6033  156.1144 C.ar    1  UNL1        0.1476
     19 N         143.7465  139.5603  156.6596 N.ar    1  UNL1       -0.2647
     20 C         143.2755  139.2650  158.0527 C.ar    1  UNL1        0.0603
     21 C         143.5751  139.9128  159.3720 C.3     1  UNL1        0.1171
     22 C         145.3878  141.6547  156.9136 C.3     1  UNL1        0.0592
     23 C         146.6081  142.4890  157.1680 C.3     1  UNL1        0.0080
     24 C         145.3995  142.6414  158.0433 C.3     1  UNL1        0.0080
     25 C         142.8311  140.4327  166.3007 C.ar    1  UNL1        0.0086
     26 C         142.6895  139.3268  167.3041 C.ar    1  UNL1        0.0300
     27 C         142.6953  139.6399  168.7711 C.ar    1  UNL1        0.1672
     28 F         142.5537  138.5339  169.7746 F       1  UNL1       -0.2018
     29 C         142.8426  141.0588  169.2346 C.ar    1  UNL1        0.1696
     30 F         142.8483  141.3719  170.7015 F       1  UNL1       -0.2017
     31 C         142.9841  142.1648  168.2311 C.ar    1  UNL1        0.0612
     32 C         142.9784  141.8517  166.7642 C.ar    1  UNL1        0.1385
     33 F         143.1200  142.9575  165.7607 F       1  UNL1       -0.2044
@<TRIPOS>BOND
     1     2     1    1
     2     2     3    1
     3     3     4    1
     4     4    10    1
     5    10    11    1
     6    11    12    1
     7    12    13   ar
     8    13    14   ar
     9    14    15   ar
    10    15    16   ar
    11    16    17   ar
    12    17    18   ar
    13    18    22    1
    14    22    23    1
    15    23    24    1
    16    18    19   ar
    17    19    20   ar
    18    20    21    1
    19     4     5    1
    20     5     6    1
    21     6     7    1
    22     7    25    1
    23    25    26   ar
    24    26    27   ar
    25    27    28    1
    26    27    29   ar
    27    29    30    1
    28    29    31   ar
    29    31    32   ar
    30    32    33    1
    31     7     2    1
    32    32    25   ar
    33    21    10    1
    34    20    12   ar
    35    19    15   ar
    36    24    22    1
    37     1     8    1
    38     1     9    1
@<TRIPOS>MOLECULE
*****
 33 38 0 0 0
SMALL
GASTEIGER

@<TRIPOS>ATOM
      1 N         144.8493  137.2487  155.3420 N.3     1  UNL1       -0.3219
      2 C         143.5531  137.5897  156.0155 C.3     1  UNL1        0.0563
      3 C         143.3207  138.9773  156.5359 C.3     1  UNL1        0.0318
      4 C         142.0245  139.3184  157.2094 C.3     1  UNL1        0.0595
      5 C         140.9608  138.2720  157.3626 C.3     1  UNL1        0.0164
      6 C         141.1933  136.8845  156.8423 C.3     1  UNL1        0.0071
      7 C         142.4894  136.5433  156.1688 C.3     1  UNL1        0.0389
      8 H         145.4507  138.0723  155.3253 H       1  UNL1        0.1188
      9 H         144.6657  136.9422  154.3867 H       1  UNL1        0.1188
     10 N         141.7921  140.7060  157.7297 N.3     1  UNL1       -0.2652
     11 C         142.4317  141.9602  157.2122 C.3     1  UNL1        0.1021
     12 C         141.9142  143.1123  158.0215 C.ar    1  UNL1        0.0266
     13 C         142.1927  144.5850  157.9633 C.ar    1  UNL1        0.1003
     14 N         141.5116  145.5156  158.9227 N.ar    1  UNL1       -0.2086
     15 C         140.5522  144.9733  159.9402 C.ar    1  UNL1        0.2564
     16 N         139.7375  145.6416  161.0078 N.ar    1  UNL1       -0.1084
     17 N         138.9555  144.5819  161.7257 N.ar    1  UNL1       -0.1315
     18 C         139.2869  143.2586  161.1019 C.ar    1  UNL1        0.1476
     19 N         140.2737  143.5006  159.9984 N.ar    1  UNL1       -0.2647
     20 C         140.9547  142.5700  159.0391 C.ar    1  UNL1        0.0603
     21 C         140.8793  141.0828  158.8587 C.3     1  UNL1        0.1171
     22 C         138.7294  141.9272  161.5100 C.3     1  UNL1        0.0592
     23 C         138.7682  140.7201  162.3995 C.3     1  UNL1        0.0080
     24 C         137.7249  140.8283  161.3272 C.3     1  UNL1        0.0080
     25 C         142.7218  135.1557  155.6485 C.ar    1  UNL1        0.0086
     26 C         142.3386  134.8089  154.2404 C.ar    1  UNL1        0.0300
     27 C         142.5710  133.4213  153.7201 C.ar    1  UNL1        0.1672
     28 F         142.1878  133.0743  152.3120 F       1  UNL1       -0.2018
     29 C         143.1865  132.3807  154.6079 C.ar    1  UNL1        0.1696
     30 F         143.4189  130.9932  154.0876 F       1  UNL1       -0.2017
     31 C         143.5698  132.7276  156.0161 C.ar    1  UNL1        0.0612
     32 C         143.3374  134.1152  156.5363 C.ar    1  UNL1        0.1385
     33 F         143.7206  134.4622  157.9444 F       1  UNL1       -0.2044
@<TRIPOS>BOND
     1     2     1    1
     2     2     3    1
     3     3     4    1
     4     4    10    1
     5    10    11    1
     6    11    12    1
     7    12    13   ar
     8    13    14   ar
     9    14    15   ar
    10    15    16   ar
    11    16    17   ar
    12    17    18   ar
    13    18    22    1
    14    22    23    1
    15    23    24    1
    16    18    19   ar
    17    19    20   ar
    18    20    21    1
    19     4     5    1
    20     5     6    1
    21     6     7    1
    22     7    25    1
    23    25    26   ar
    24    26    27   ar
    25    27    28    1
    26    27    29   ar
    27    29    30    1
    28    29    31   ar
    29    31    32   ar
    30    32    33    1
    31     7     2    1
    32    32    25   ar
    33    21    10    1
    34    20    12   ar
    35    19    15   ar
    36    24    22    1
    37     1     8    1
    38     1     9    1
@<TRIPOS>MOLECULE
*****
 33 38 0 0 0
SMALL
GASTEIGER

@<TRIPOS>ATOM
      1 N         137.2405  140.5488  162.0303 N.3     1  UNL1       -0.3219
      2 C         138.4201  139.8115  161.4692 C.3     1  UNL1        0.0563
      3 C         138.5456  139.6142  159.9875 C.3     1  UNL1        0.0318
      4 C         139.7252  138.8769  159.4262 C.3     1  UNL1        0.0595
      5 C         140.7793  138.3368  160.3467 C.3     1  UNL1        0.0164
      6 C         140.6537  138.5340  161.8284 C.3     1  UNL1        0.0071
      7 C         139.4741  139.2713  162.3896 C.3     1  UNL1        0.0389
      8 H         136.6295  140.8428  161.2684 H       1  UNL1        0.1188
      9 H         137.5646  141.3693  162.5422 H       1  UNL1        0.1188
     10 N         139.8507  138.6797  157.9445 N.3     1  UNL1       -0.2652
     11 C         139.2273  139.5390  156.8848 C.3     1  UNL1        0.1021
     12 C         139.6130  138.9789  155.5478 C.ar    1  UNL1        0.0266
     13 C         139.2908  139.4108  154.1480 C.ar    1  UNL1        0.1003
     14 N         139.8304  138.6373  152.9815 N.ar    1  UNL1       -0.2086
     15 C         140.6921  137.4320  153.2149 C.ar    1  UNL1        0.2564
     16 N         141.3620  136.4788  152.2700 N.ar    1  UNL1       -0.1084
     17 N         142.0982  135.4579  153.0859 N.ar    1  UNL1       -0.1315
     18 C         141.8833  135.7800  154.5350 C.ar    1  UNL1        0.1476
     19 N         141.0142  137.0001  154.6148 N.ar    1  UNL1       -0.2647
     20 C         140.4747  137.7735  155.7812 C.ar    1  UNL1        0.0603
     21 C         140.6216  137.5886  157.2625 C.3     1  UNL1        0.1171
     22 C         142.4397  135.0162  155.6999 C.3     1  UNL1        0.0592
     23 C         142.6093  133.7258  156.4454 C.3     1  UNL1        0.0080
     24 C         143.2338  134.9838  156.9721 C.3     1  UNL1        0.0080
     25 C         139.3486  139.4685  163.8713 C.ar    1  UNL1        0.0086
     26 C         138.5358  138.5093  164.6893 C.ar    1  UNL1        0.0300
     27 C         138.4103  138.7065  166.1710 C.ar    1  UNL1        0.1672
     28 F         137.5975  137.7473  166.9891 F       1  UNL1       -0.2018
     29 C         139.0976  139.8628  166.8346 C.ar    1  UNL1        0.1696
     30 F         138.9721  140.0600  168.3163 F       1  UNL1       -0.2017
     31 C         139.9105  140.8221  166.0166 C.ar    1  UNL1        0.0612
     32 C         140.0360  140.6249  164.5349 C.ar    1  UNL1        0.1385
     33 F         140.8488  141.5841  163.7168 F       1  UNL1       -0.2044
@<TRIPOS>BOND
     1     2     1    1
     2     2     3    1
     3     3     4    1
     4     4    10    1
     5    10    11    1
     6    11    12    1
     7    12    13   ar
     8    13    14   ar
     9    14    15   ar
    10    15    16   ar
    11    16    17   ar
    12    17    18   ar
    13    18    22    1
    14    22    23    1
    15    23    24    1
    16    18    19   ar
    17    19    20   ar
    18    20    21    1
    19     4     5    1
    20     5     6    1
    21     6     7    1
    22     7    25    1
    23    25    26   ar
    24    26    27   ar
    25    27    28    1
    26    27    29   ar
    27    29    30    1
    28    29    31   ar
    29    31    32   ar
    30    32    33    1
    31     7     2    1
    32    32    25   ar
    33    21    10    1
    34    20    12   ar
    35    19    15   ar
    36    24    22    1
    37     1     8    1
    38     1     9    1
@<TRIPOS>MOLECULE
*****
 33 38 0 0 0
SMALL
GASTEIGER

@<TRIPOS>ATOM
      1 N         138.1885  139.5916  162.3967 N.3     1  UNL1       -0.3219
      2 C         139.2991  139.9723  161.4631 C.3     1  UNL1        0.0563
      3 C         139.7273  139.0255  160.3813 C.3     1  UNL1        0.0318
      4 C         140.8379  139.4061  159.4477 C.3     1  UNL1        0.0595
      5 C         141.5204  140.7336  159.5958 C.3     1  UNL1        0.0164
      6 C         141.0923  141.6804  160.6776 C.3     1  UNL1        0.0071
      7 C         139.9816  141.2998  161.6113 C.3     1  UNL1        0.0389
      8 H         137.8427  138.6635  162.1530 H       1  UNL1        0.1188
      9 H         137.4300  140.2689  162.3168 H       1  UNL1        0.1188
     10 N         141.2660  138.4592  158.3659 N.3     1  UNL1       -0.2652
     11 C         142.5220  137.6392  158.3582 C.3     1  UNL1        0.1021
     12 C         142.5454  136.8394  157.0894 C.ar    1  UNL1        0.0266
     13 C         143.5369  135.8565  156.5408 C.ar    1  UNL1        0.1003
     14 N         143.2868  135.1994  155.2157 N.ar    1  UNL1       -0.2086
     15 C         142.0455  135.5250  154.4395 C.ar    1  UNL1        0.2564
     16 N         141.5328  135.0393  153.1160 N.ar    1  UNL1       -0.1084
     17 N         140.2246  135.7220  152.8468 N.ar    1  UNL1       -0.1315
     18 C         139.9286  136.6296  154.0038 C.ar    1  UNL1        0.1476
     19 N         141.0540  136.5079  154.9881 N.ar    1  UNL1       -0.2647
     20 C         141.3040  137.1650  156.3131 C.ar    1  UNL1        0.0603
     21 C         140.5132  138.1662  157.1020 C.3     1  UNL1        0.1171
     22 C         138.7196  137.5052  154.1507 C.3     1  UNL1        0.0592
     23 C         138.1150  138.8676  154.3185 C.3     1  UNL1        0.0080
     24 C         137.2301  137.6592  154.2374 C.3     1  UNL1        0.0080
     25 C         139.5536  142.2466  162.6930 C.ar    1  UNL1        0.0086
     26 C         140.3244  142.3152  163.9779 C.ar    1  UNL1        0.0300
     27 C         139.8963  143.2620  165.0597 C.ar    1  UNL1        0.1672
     28 F         140.6672  143.3307  166.3447 F       1  UNL1       -0.2018
     29 C         138.6975  144.1403  164.8566 C.ar    1  UNL1        0.1696
     30 F         138.2694  145.0871  165.9383 F       1  UNL1       -0.2017
     31 C         137.9265  144.0717  163.5716 C.ar    1  UNL1        0.0612
     32 C         138.3546  143.1248  162.4898 C.ar    1  UNL1        0.1385
     33 F         137.5838  143.0562  161.2049 F       1  UNL1       -0.2044
@<TRIPOS>BOND
     1     2     1    1
     2     2     3    1
     3     3     4    1
     4     4    10    1
     5    10    11    1
     6    11    12    1
     7    12    13   ar
     8    13    14   ar
     9    14    15   ar
    10    15    16   ar
    11    16    17   ar
    12    17    18   ar
    13    18    22    1
    14    22    23    1
    15    23    24    1
    16    18    19   ar
    17    19    20   ar
    18    20    21    1
    19     4     5    1
    20     5     6    1
    21     6     7    1
    22     7    25    1
    23    25    26   ar
    24    26    27   ar
    25    27    28    1
    26    27    29   ar
    27    29    30    1
    28    29    31   ar
    29    31    32   ar
    30    32    33    1
    31     7     2    1
    32    32    25   ar
    33    21    10    1
    34    20    12   ar
    35    19    15   ar
    36    24    22    1
    37     1     8    1
    38     1     9    1
@<TRIPOS>MOLECULE
*****
 33 38 0 0 0
SMALL
GASTEIGER

@<TRIPOS>ATOM
      1 N         144.7491  141.5844  164.6624 N.3     1  UNL1       -0.3219
      2 C         143.4239  142.1660  164.2681 C.3     1  UNL1        0.0563
      3 C         143.2261  142.7122  162.8851 C.3     1  UNL1        0.0318
      4 C         141.9009  143.2938  162.4907 C.3     1  UNL1        0.0595
      5 C         140.7734  143.3293  163.4793 C.3     1  UNL1        0.0164
      6 C         140.9712  142.7831  164.8624 C.3     1  UNL1        0.0071
      7 C         142.2964  142.2015  165.2567 C.3     1  UNL1        0.0389
      8 H         145.3936  141.6416  163.8739 H       1  UNL1        0.1188
      9 H         144.6257  140.6081  164.9305 H       1  UNL1        0.1188
     10 N         141.7033  143.8399  161.1077 N.3     1  UNL1       -0.2652
     11 C         140.7476  144.9283  160.7178 C.3     1  UNL1        0.1021
     12 C         140.8803  145.1545  159.2409 C.ar    1  UNL1        0.0266
     13 C         140.1903  146.1017  158.3047 C.ar    1  UNL1        0.1003
     14 N         140.5380  146.1003  156.8455 N.ar    1  UNL1       -0.2086
     15 C         141.5756  145.1518  156.3227 C.ar    1  UNL1        0.2564
     16 N         142.1231  144.9229  154.9450 N.ar    1  UNL1       -0.1084
     17 N         143.1515  143.8342  155.0299 N.ar    1  UNL1       -0.1315
     18 C         143.2396  143.3902  156.4599 C.ar    1  UNL1        0.1476
     19 N         142.2656  144.2046  157.2589 N.ar    1  UNL1       -0.2647
     20 C         141.9180  144.2059  158.7181 C.ar    1  UNL1        0.0603
     21 C         142.4266  143.3934  159.8718 C.3     1  UNL1        0.1171
     22 C         144.1429  142.3199  156.9968 C.3     1  UNL1        0.0592
     23 C         144.3706  140.8924  157.3971 C.3     1  UNL1        0.0080
     24 C         145.4801  141.8936  157.5262 C.3     1  UNL1        0.0080
     25 C         142.4940  141.6554  166.6397 C.ar    1  UNL1        0.0086
     26 C         143.0829  142.5236  167.7118 C.ar    1  UNL1        0.0300
     27 C         143.2806  141.9775  169.0948 C.ar    1  UNL1        0.1672
     28 F         143.8695  142.8458  170.1669 F       1  UNL1       -0.2018
     29 C         142.8894  140.5633  169.4057 C.ar    1  UNL1        0.1696
     30 F         143.0871  140.0172  170.7887 F       1  UNL1       -0.2017
     31 C         142.3005  139.6950  168.3336 C.ar    1  UNL1        0.0612
     32 C         142.1028  140.2411  166.9506 C.ar    1  UNL1        0.1385
     33 F         141.5139  139.3729  165.8785 F       1  UNL1       -0.2044
@<TRIPOS>BOND
     1     2     1    1
     2     2     3    1
     3     3     4    1
     4     4    10    1
     5    10    11    1
     6    11    12    1
     7    12    13   ar
     8    13    14   ar
     9    14    15   ar
    10    15    16   ar
    11    16    17   ar
    12    17    18   ar
    13    18    22    1
    14    22    23    1
    15    23    24    1
    16    18    19   ar
    17    19    20   ar
    18    20    21    1
    19     4     5    1
    20     5     6    1
    21     6     7    1
    22     7    25    1
    23    25    26   ar
    24    26    27   ar
    25    27    28    1
    26    27    29   ar
    27    29    30    1
    28    29    31   ar
    29    31    32   ar
    30    32    33    1
    31     7     2    1
    32    32    25   ar
    33    21    10    1
    34    20    12   ar
    35    19    15   ar
    36    24    22    1
    37     1     8    1
    38     1     9    1
