@<TRIPOS>MOLECULE
*****
 23 25 0 0 0
SMALL
GASTEIGER

@<TRIPOS>ATOM
      1 C         139.6474  143.9834  163.0247 C.ar    1  UNL1        0.1987
      2 C         138.9102  144.9513  163.9021 C.ar    1  UNL1        0.0454
      3 C         138.9454  144.4238  165.3060 C.ar    1  UNL1        0.0408
      4 C         139.7042  143.1299  165.2960 C.ar    1  UNL1        0.1455
      5 O         140.1381  142.8578  163.8862 O.2     1  UNL1       -0.4489
      6 C         139.9807  142.2608  166.4869 C.ar    1  UNL1        0.0346
      7 C         139.6249  140.8041  166.4511 C.ar    1  UNL1        0.0039
      8 C         139.9013  139.9350  167.6419 C.ar    1  UNL1        0.0115
      9 C         140.5336  140.5226  168.8686 C.ar    1  UNL1        0.0577
     10 CL        140.8101  139.6534  170.0595 Cl      1  UNL1       -0.0822
     11 C         140.8895  141.9794  168.9045 C.ar    1  UNL1        0.0115
     12 C         140.6130  142.8484  167.7136 C.ar    1  UNL1        0.0039
     13 N         141.0332  144.8870  161.0214 N.am    1  UNL1       -0.2633
     14 C         139.8570  144.1177  161.5455 C.2     1  UNL1        0.2853
     15 O         138.8904  143.4826  160.5903 O.2     1  UNL1       -0.2664
     16 H         141.6676  145.3038  161.6484 H       1  UNL1        0.1567
     17 C         139.5402  146.7801  156.4185 C.3     1  UNL1        0.0312
     18 C         140.4963  145.9679  157.2408 C.ar    1  UNL1       -0.0175
     19 C         141.6619  145.2899  156.5839 C.ar    1  UNL1        0.0165
     20 C         142.6180  144.4776  157.4061 C.ar    1  UNL1        0.1000
     21 N         142.4085  144.3433  158.8853 N.ar    1  UNL1       -0.2290
     22 C         141.2428  145.0213  159.5422 C.ar    1  UNL1        0.1341
     23 C         140.2867  145.8336  158.7199 C.ar    1  UNL1        0.0302
@<TRIPOS>BOND
     1    17    18    1
     2    18    19   ar
     3    19    20   ar
     4    20    21   ar
     5    21    22   ar
     6    22    13    1
     7    13    14   am
     8    14    15    2
     9    14     1    1
    10     1     2   ar
    11     2     3   ar
    12     3     4   ar
    13     4     6    1
    14     6     7   ar
    15     7     8   ar
    16     8     9   ar
    17     9    10    1
    18     9    11   ar
    19    11    12   ar
    20     4     5   ar
    21    22    23   ar
    22    23    18   ar
    23     5     1   ar
    24    12     6   ar
    25    13    16    1
@<TRIPOS>MOLECULE
*****
 23 25 0 0 0
SMALL
GASTEIGER

@<TRIPOS>ATOM
      1 C         143.0868  143.4943  162.5835 C.ar    1  UNL1        0.1987
      2 C         143.9650  144.4165  163.3763 C.ar    1  UNL1        0.0454
      3 C         144.0521  143.8840  164.7760 C.ar    1  UNL1        0.0408
      4 C         143.2278  142.6328  164.8481 C.ar    1  UNL1        0.1455
      5 O         142.6313  142.3920  163.4931 O.2     1  UNL1       -0.4489
      6 C         143.0341  141.7734  166.0620 C.ar    1  UNL1        0.0346
      7 C         142.7674  140.3054  165.9070 C.ar    1  UNL1        0.0039
      8 C         142.5737  139.4460  167.1210 C.ar    1  UNL1        0.0115
      9 C         142.6466  140.0545  168.4901 C.ar    1  UNL1        0.0577
     10 CL        142.4529  139.1950  169.7041 Cl      1  UNL1       -0.0822
     11 C         142.9133  141.5225  168.6452 C.ar    1  UNL1        0.0115
     12 C         143.1070  142.3819  167.4311 C.ar    1  UNL1        0.0039
     13 N         141.8424  144.7769  160.6976 N.am    1  UNL1       -0.2633
     14 C         142.7274  143.6477  161.1352 C.2     1  UNL1        0.2853
     15 O         143.2531  142.6718  160.1246 O.2     1  UNL1       -0.2664
     16 H         141.4974  145.4174  161.3609 H       1  UNL1        0.1567
     17 C         138.8206  143.5395  156.6556 C.3     1  UNL1        0.0312
     18 C         139.9721  144.3116  157.2284 C.ar    1  UNL1       -0.0175
     19 C         140.7641  145.2369  156.3530 C.ar    1  UNL1        0.0165
     20 C         141.9156  146.0089  156.9258 C.ar    1  UNL1        0.1000
     21 N         142.2750  145.8556  158.3740 N.ar    1  UNL1       -0.2290
     22 C         141.4830  144.9303  159.2494 C.ar    1  UNL1        0.1341
     23 C         140.3315  144.1582  158.6766 C.ar    1  UNL1        0.0302
@<TRIPOS>BOND
     1    17    18    1
     2    18    19   ar
     3    19    20   ar
     4    20    21   ar
     5    21    22   ar
     6    22    13    1
     7    13    14   am
     8    14    15    2
     9    14     1    1
    10     1     2   ar
    11     2     3   ar
    12     3     4   ar
    13     4     6    1
    14     6     7   ar
    15     7     8   ar
    16     8     9   ar
    17     9    10    1
    18     9    11   ar
    19    11    12   ar
    20     4     5   ar
    21    22    23   ar
    22    23    18   ar
    23     5     1   ar
    24    12     6   ar
    25    13    16    1
@<TRIPOS>MOLECULE
*****
 23 25 0 0 0
SMALL
GASTEIGER

@<TRIPOS>ATOM
      1 C         139.7587  144.5258  163.2248 C.ar    1  UNL1        0.1987
      2 C         138.5677  144.7401  164.1112 C.ar    1  UNL1        0.0454
      3 C         138.8705  144.1331  165.4491 C.ar    1  UNL1        0.0408
      4 C         140.2486  143.5437  165.3895 C.ar    1  UNL1        0.1455
      5 O         140.7975  143.7864  164.0148 O.2     1  UNL1       -0.4489
      6 C         140.9539  142.8359  166.5082 C.ar    1  UNL1        0.0346
      7 C         142.2563  142.1376  166.2509 C.ar    1  UNL1        0.0039
      8 C         142.9616  141.4298  167.3696 C.ar    1  UNL1        0.0115
      9 C         142.3646  141.4202  168.7456 C.ar    1  UNL1        0.0577
     10 CL        143.0699  140.7124  169.8643 Cl      1  UNL1       -0.0822
     11 C         141.0622  142.1185  169.0030 C.ar    1  UNL1        0.0115
     12 C         140.3569  142.8264  167.8842 C.ar    1  UNL1        0.0039
     13 N         140.6505  144.1339  160.8163 N.am    1  UNL1       -0.2633
     14 C         139.8881  144.9726  161.7987 C.2     1  UNL1        0.2853
     15 O         139.2550  146.2580  161.3551 O.2     1  UNL1       -0.2664
     16 H         141.0660  143.2902  161.1074 H       1  UNL1        0.1567
     17 C         138.9601  144.0502  155.9035 C.3     1  UNL1        0.0312
     18 C         139.9347  144.5387  156.9338 C.ar    1  UNL1       -0.0175
     19 C         141.0386  145.4740  156.5380 C.ar    1  UNL1        0.0165
     20 C         142.0131  145.9625  157.5683 C.ar    1  UNL1        0.1000
     21 N         141.8838  145.5159  158.9944 N.ar    1  UNL1       -0.2290
     22 C         140.7799  144.5806  159.3901 C.ar    1  UNL1        0.1341
     23 C         139.8053  144.0921  158.3598 C.ar    1  UNL1        0.0302
@<TRIPOS>BOND
     1    17    18    1
     2    18    19   ar
     3    19    20   ar
     4    20    21   ar
     5    21    22   ar
     6    22    13    1
     7    13    14   am
     8    14    15    2
     9    14     1    1
    10     1     2   ar
    11     2     3   ar
    12     3     4   ar
    13     4     6    1
    14     6     7   ar
    15     7     8   ar
    16     8     9   ar
    17     9    10    1
    18     9    11   ar
    19    11    12   ar
    20     4     5   ar
    21    22    23   ar
    22    23    18   ar
    23     5     1   ar
    24    12     6   ar
    25    13    16    1
@<TRIPOS>MOLECULE
*****
 23 25 0 0 0
SMALL
GASTEIGER

@<TRIPOS>ATOM
      1 C         143.0200  143.1492  164.1116 C.ar    1  UNL1        0.1987
      2 C         144.1254  143.1681  165.1254 C.ar    1  UNL1        0.0454
      3 C         143.5749  142.6497  166.4209 C.ar    1  UNL1        0.0408
      4 C         142.1293  142.3105  166.2077 C.ar    1  UNL1        0.1455
      5 O         141.7864  142.6193  164.7804 O.2     1  UNL1       -0.4489
      6 C         141.1914  141.7594  167.2404 C.ar    1  UNL1        0.0346
      7 C         140.4271  140.4989  166.9630 C.ar    1  UNL1        0.0039
      8 C         139.4892  139.9478  167.9956 C.ar    1  UNL1        0.0115
      9 C         139.3155  140.6572  169.3058 C.ar    1  UNL1        0.0577
     10 CL        138.3776  140.1061  170.3386 Cl      1  UNL1       -0.0822
     11 C         140.0798  141.9177  169.5833 C.ar    1  UNL1        0.0115
     12 C         141.0178  142.4688  168.5506 C.ar    1  UNL1        0.0039
     13 N         142.0671  143.1949  161.6949 N.am    1  UNL1       -0.2633
     14 C         143.1292  143.5841  162.6801 C.2     1  UNL1        0.2853
     15 O         144.3004  144.4081  162.2338 O.2     1  UNL1       -0.2664
     16 H         141.2984  142.6540  161.9879 H       1  UNL1        0.1567
     17 C         140.3502  146.0703  157.7220 C.3     1  UNL1        0.0312
     18 C         141.3178  145.0674  158.2770 C.ar    1  UNL1       -0.0175
     19 C         142.3945  144.4994  157.4007 C.ar    1  UNL1        0.0165
     20 C         143.3621  143.4966  157.9557 C.ar    1  UNL1        0.1000
     21 N         143.2530  143.0617  159.3871 N.ar    1  UNL1       -0.2290
     22 C         142.1763  143.6297  160.2634 C.ar    1  UNL1        0.1341
     23 C         141.2087  144.6326  159.7084 C.ar    1  UNL1        0.0302
@<TRIPOS>BOND
     1    17    18    1
     2    18    19   ar
     3    19    20   ar
     4    20    21   ar
     5    21    22   ar
     6    22    13    1
     7    13    14   am
     8    14    15    2
     9    14     1    1
    10     1     2   ar
    11     2     3   ar
    12     3     4   ar
    13     4     6    1
    14     6     7   ar
    15     7     8   ar
    16     8     9   ar
    17     9    10    1
    18     9    11   ar
    19    11    12   ar
    20     4     5   ar
    21    22    23   ar
    22    23    18   ar
    23     5     1   ar
    24    12     6   ar
    25    13    16    1
@<TRIPOS>MOLECULE
*****
 23 25 0 0 0
SMALL
GASTEIGER

@<TRIPOS>ATOM
      1 C         140.0118  138.5906  163.5991 C.ar    1  UNL1        0.1987
      2 C         138.9033  137.8257  164.2593 C.ar    1  UNL1        0.0454
      3 C         138.6818  138.4135  165.6215 C.ar    1  UNL1        0.0408
      4 C         139.6535  139.5418  165.8030 C.ar    1  UNL1        0.1455
      5 O         140.4755  139.6512  164.5531 O.2     1  UNL1       -0.4489
      6 C         139.7808  140.4084  167.0206 C.ar    1  UNL1        0.0346
      7 C         139.3028  139.9074  168.3512 C.ar    1  UNL1        0.0039
      8 C         139.4301  140.7740  169.5688 C.ar    1  UNL1        0.0115
      9 C         140.0355  142.1417  169.4560 C.ar    1  UNL1        0.0577
     10 CL        140.1628  143.0084  170.6736 Cl      1  UNL1       -0.0822
     11 C         140.5136  142.6429  168.1254 C.ar    1  UNL1        0.0115
     12 C         140.3862  141.7762  166.9078 C.ar    1  UNL1        0.0039
     13 N         140.1519  139.2195  161.0821 N.am    1  UNL1       -0.2633
     14 C         140.5604  138.3391  162.2258 C.2     1  UNL1        0.2853
     15 O         141.5175  137.2071  161.9962 O.2     1  UNL1       -0.2664
     16 H         139.5238  139.9624  161.2328 H       1  UNL1        0.1567
     17 C         139.5243  137.4327  156.2434 C.3     1  UNL1        0.0312
     18 C         140.3866  138.0745  157.2895 C.ar    1  UNL1       -0.0175
     19 C         141.7975  138.4649  156.9623 C.ar    1  UNL1        0.0165
     20 C         142.6598  139.1067  158.0085 C.ar    1  UNL1        0.1000
     21 N         142.1113  139.3583  159.3817 N.ar    1  UNL1       -0.2290
     22 C         140.7005  138.9679  159.7088 C.ar    1  UNL1        0.1341
     23 C         139.8381  138.3261  158.6627 C.ar    1  UNL1        0.0302
@<TRIPOS>BOND
     1    17    18    1
     2    18    19   ar
     3    19    20   ar
     4    20    21   ar
     5    21    22   ar
     6    22    13    1
     7    13    14   am
     8    14    15    2
     9    14     1    1
    10     1     2   ar
    11     2     3   ar
    12     3     4   ar
    13     4     6    1
    14     6     7   ar
    15     7     8   ar
    16     8     9   ar
    17     9    10    1
    18     9    11   ar
    19    11    12   ar
    20     4     5   ar
    21    22    23   ar
    22    23    18   ar
    23     5     1   ar
    24    12     6   ar
    25    13    16    1
@<TRIPOS>MOLECULE
*****
 23 25 0 0 0
SMALL
GASTEIGER

@<TRIPOS>ATOM
      1 C         139.9392  139.0315  164.9363 C.ar    1  UNL1        0.1987
      2 C         138.8913  137.9931  164.6653 C.ar    1  UNL1        0.0454
      3 C         138.9689  137.6241  163.2133 C.ar    1  UNL1        0.0408
      4 C         140.0648  138.4347  162.5871 C.ar    1  UNL1        0.1455
      5 O         140.6644  139.3045  163.6519 O.2     1  UNL1       -0.4489
      6 C         140.4868  138.3843  161.1487 C.ar    1  UNL1        0.0346
      7 C         141.9320  138.1885  160.7974 C.ar    1  UNL1        0.0039
      8 C         142.3540  138.1381  159.3590 C.ar    1  UNL1        0.0115
      9 C         141.3310  138.2834  158.2716 C.ar    1  UNL1        0.0577
     10 CL        141.7531  138.2330  156.8331 Cl      1  UNL1       -0.0822
     11 C         139.8858  138.4792  158.6228 C.ar    1  UNL1        0.0115
     12 C         139.4638  138.5296  160.0613 C.ar    1  UNL1        0.0039
     13 N         141.4366  140.5328  166.4376 N.am    1  UNL1       -0.2633
     14 C         140.2137  139.6828  166.2594 C.2     1  UNL1        0.2853
     15 O         139.2651  139.4838  167.4043 O.2     1  UNL1       -0.2664
     16 H         142.0591  140.6634  165.6862 H       1  UNL1        0.1567
     17 C         140.3671  144.2072  169.9526 C.3     1  UNL1        0.0312
     18 C         141.1762  143.0212  169.5183 C.ar    1  UNL1       -0.0175
     19 C         142.2598  142.4865  170.4070 C.ar    1  UNL1        0.0165
     20 C         143.0690  141.3005  169.9726 C.ar    1  UNL1        0.1000
     21 N         142.7946  140.6493  168.6495 N.ar    1  UNL1       -0.2290
     22 C         141.7110  141.1840  167.7608 C.ar    1  UNL1        0.1341
     23 C         140.9018  142.3700  168.1952 C.ar    1  UNL1        0.0302
@<TRIPOS>BOND
     1    17    18    1
     2    18    19   ar
     3    19    20   ar
     4    20    21   ar
     5    21    22   ar
     6    22    13    1
     7    13    14   am
     8    14    15    2
     9    14     1    1
    10     1     2   ar
    11     2     3   ar
    12     3     4   ar
    13     4     6    1
    14     6     7   ar
    15     7     8   ar
    16     8     9   ar
    17     9    10    1
    18     9    11   ar
    19    11    12   ar
    20     4     5   ar
    21    22    23   ar
    22    23    18   ar
    23     5     1   ar
    24    12     6   ar
    25    13    16    1
@<TRIPOS>MOLECULE
*****
 23 25 0 0 0
SMALL
GASTEIGER

@<TRIPOS>ATOM
      1 C         141.0472  144.1617  162.0585 C.ar    1  UNL1        0.1987
      2 C         142.1481  144.7935  162.8578 C.ar    1  UNL1        0.0454
      3 C         142.1124  144.2090  164.2388 C.ar    1  UNL1        0.0408
      4 C         140.9893  143.2161  164.2930 C.ar    1  UNL1        0.1455
      5 O         140.3310  143.1868  162.9455 O.2     1  UNL1       -0.4489
      6 C         140.5940  142.3963  165.4853 C.ar    1  UNL1        0.0346
      7 C         140.8466  142.9156  166.8697 C.ar    1  UNL1        0.0039
      8 C         140.4513  142.0959  168.0620 C.ar    1  UNL1        0.0115
      9 C         139.8034  140.7567  167.8700 C.ar    1  UNL1        0.0577
     10 CL        139.4081  139.9369  169.0623 Cl      1  UNL1       -0.0822
     11 C         139.5508  140.2373  166.4855 C.ar    1  UNL1        0.0115
     12 C         139.9461  141.0572  165.2933 C.ar    1  UNL1        0.0039
     13 N         141.6607  145.2737  159.7920 N.am    1  UNL1       -0.2633
     14 C         140.7199  144.4536  160.6240 C.2     1  UNL1        0.2853
     15 O         139.4518  143.9255  160.0216 O.2     1  UNL1       -0.2664
     16 H         142.4930  145.6203  160.1874 H       1  UNL1        0.1567
     17 C         142.8276  144.8934  154.7428 C.3     1  UNL1        0.0312
     18 C         141.9169  145.3754  155.8329 C.ar    1  UNL1       -0.0175
     19 C         140.6790  146.1494  155.4886 C.ar    1  UNL1        0.0165
     20 C         139.7684  146.6314  156.5786 C.ar    1  UNL1        0.1000
     21 N         140.0956  146.3395  158.0131 N.ar    1  UNL1       -0.2290
     22 C         141.3335  145.5656  158.3574 C.ar    1  UNL1        0.1341
     23 C         142.2441  145.0836  157.2674 C.ar    1  UNL1        0.0302
@<TRIPOS>BOND
     1    17    18    1
     2    18    19   ar
     3    19    20   ar
     4    20    21   ar
     5    21    22   ar
     6    22    13    1
     7    13    14   am
     8    14    15    2
     9    14     1    1
    10     1     2   ar
    11     2     3   ar
    12     3     4   ar
    13     4     6    1
    14     6     7   ar
    15     7     8   ar
    16     8     9   ar
    17     9    10    1
    18     9    11   ar
    19    11    12   ar
    20     4     5   ar
    21    22    23   ar
    22    23    18   ar
    23     5     1   ar
    24    12     6   ar
    25    13    16    1
@<TRIPOS>MOLECULE
*****
 23 25 0 0 0
SMALL
GASTEIGER

@<TRIPOS>ATOM
      1 C         138.8438  139.8740  163.3176 C.ar    1  UNL1        0.1987
      2 C         138.6709  138.4193  163.6402 C.ar    1  UNL1        0.0454
      3 C         139.2233  138.1804  165.0142 C.ar    1  UNL1        0.0408
      4 C         139.7376  139.4875  165.5407 C.ar    1  UNL1        0.1455
      5 O         139.5030  140.5341  164.4921 O.2     1  UNL1       -0.4489
      6 C         140.3746  139.7089  166.8805 C.ar    1  UNL1        0.0346
      7 C         141.8658  139.6337  167.0237 C.ar    1  UNL1        0.0039
      8 C         142.5028  139.8552  168.3635 C.ar    1  UNL1        0.0115
      9 C         141.6485  140.1519  169.5602 C.ar    1  UNL1        0.0577
     10 CL        142.2855  140.3734  170.9001 Cl      1  UNL1       -0.0822
     11 C         140.1572  140.2272  169.4171 C.ar    1  UNL1        0.0115
     12 C         139.5203  140.0057  168.0772 C.ar    1  UNL1        0.0039
     13 N         139.1127  140.2020  160.7543 N.am    1  UNL1       -0.2633
     14 C         138.4301  140.5498  162.0439 C.2     1  UNL1        0.2853
     15 O         137.3337  141.5734  162.0599 O.2     1  UNL1       -0.2664
     16 H         139.8323  139.5302  160.7439 H       1  UNL1        0.1567
     17 C         139.5854  144.1293  157.3848 C.3     1  UNL1        0.0312
     18 C         138.9353  142.8415  157.7960 C.ar    1  UNL1       -0.0175
     19 C         137.8715  142.2296  156.9335 C.ar    1  UNL1        0.0165
     20 C         137.2215  140.9418  157.3447 C.ar    1  UNL1        0.1000
     21 N         137.6351  140.2660  158.6182 N.ar    1  UNL1       -0.2290
     22 C         138.6989  140.8779  159.4807 C.ar    1  UNL1        0.1341
     23 C         139.3490  142.1657  159.0696 C.ar    1  UNL1        0.0302
@<TRIPOS>BOND
     1    17    18    1
     2    18    19   ar
     3    19    20   ar
     4    20    21   ar
     5    21    22   ar
     6    22    13    1
     7    13    14   am
     8    14    15    2
     9    14     1    1
    10     1     2   ar
    11     2     3   ar
    12     3     4   ar
    13     4     6    1
    14     6     7   ar
    15     7     8   ar
    16     8     9   ar
    17     9    10    1
    18     9    11   ar
    19    11    12   ar
    20     4     5   ar
    21    22    23   ar
    22    23    18   ar
    23     5     1   ar
    24    12     6   ar
    25    13    16    1
@<TRIPOS>MOLECULE
*****
 23 25 0 0 0
SMALL
GASTEIGER

@<TRIPOS>ATOM
      1 C         142.5965  138.0267  158.4245 C.ar    1  UNL1        0.1987
      2 C         142.0180  138.6300  157.1790 C.ar    1  UNL1        0.0454
      3 C         142.0262  137.5795  156.1082 C.ar    1  UNL1        0.0408
      4 C         142.6098  136.3270  156.6921 C.ar    1  UNL1        0.1455
      5 O         142.9622  136.6035  158.1236 O.2     1  UNL1       -0.4489
      6 C         142.8063  135.0266  155.9710 C.ar    1  UNL1        0.0346
      7 C         142.0577  134.7528  154.7004 C.ar    1  UNL1        0.0039
      8 C         142.2542  133.4523  153.9793 C.ar    1  UNL1        0.0115
      9 C         143.1995  132.4255  154.5288 C.ar    1  UNL1        0.0577
     10 CL        143.3961  131.1249  153.8077 Cl      1  UNL1       -0.0822
     11 C         143.9483  132.6992  155.7995 C.ar    1  UNL1        0.0115
     12 C         143.7516  133.9997  156.5206 C.ar    1  UNL1        0.0039
     13 N         144.1401  138.8128  160.3609 N.am    1  UNL1       -0.2633
     14 C         142.7775  138.7244  159.7401 C.2     1  UNL1        0.2853
     15 O         141.5959  139.3336  160.4348 O.2     1  UNL1       -0.2664
     16 H         144.9157  138.4130  159.9049 H       1  UNL1        0.1567
     17 C         143.7593  138.8152  165.5431 C.3     1  UNL1        0.0312
     18 C         144.1307  139.5116  164.2675 C.ar    1  UNL1       -0.0175
     19 C         144.6831  140.9056  164.3075 C.ar    1  UNL1        0.0165
     20 C         145.0545  141.6020  163.0319 C.ar    1  UNL1        0.1000
     21 N         144.8735  140.9044  161.7164 N.ar    1  UNL1       -0.2290
     22 C         144.3211  139.5105  161.6765 C.ar    1  UNL1        0.1341
     23 C         143.9497  138.8140  162.9520 C.ar    1  UNL1        0.0302
@<TRIPOS>BOND
     1    17    18    1
     2    18    19   ar
     3    19    20   ar
     4    20    21   ar
     5    21    22   ar
     6    22    13    1
     7    13    14   am
     8    14    15    2
     9    14     1    1
    10     1     2   ar
    11     2     3   ar
    12     3     4   ar
    13     4     6    1
    14     6     7   ar
    15     7     8   ar
    16     8     9   ar
    17     9    10    1
    18     9    11   ar
    19    11    12   ar
    20     4     5   ar
    21    22    23   ar
    22    23    18   ar
    23     5     1   ar
    24    12     6   ar
    25    13    16    1
