@<TRIPOS>MOLECULE
*****
 31 34 0 0 0
SMALL
GASTEIGER

@<TRIPOS>ATOM
      1 O         138.5743  139.3624  164.1046 O.2     1  UNL1       -0.2651
      2 C         139.1642  140.0219  162.8933 C.ar    1  UNL1        0.2814
      3 N         139.6277  139.1877  161.7361 N.ar    1  UNL1       -0.1866
      4 C         140.2176  139.8472  160.5248 C.ar    1  UNL1        0.1665
      5 S         140.3440  141.3408  160.4708 S.2     1  UNL1       -0.0466
      6 C         139.8804  142.1750  161.6280 C.ar    1  UNL1        0.1059
      7 C         140.0068  143.6688  161.5740 C.ar    1  UNL1        0.2960
      8 C         139.5433  144.5030  162.7312 C.ar    1  UNL1        0.0797
      9 C         138.9534  143.8435  163.9425 C.ar    1  UNL1        0.0777
     10 C         138.8270  142.3498  163.9965 C.ar    1  UNL1        0.0096
     11 C         139.2906  141.5156  162.8393 C.ar    1  UNL1        0.0699
     12 N         140.6811  139.0129  159.3675 N.pl3   1  UNL1       -0.2852
     13 C         139.6967  138.5504  158.3345 C.3     1  UNL1        0.1100
     14 C         140.1602  137.7162  157.1773 C.3     1  UNL1        0.0939
     15 N         141.6081  137.3444  157.0531 N.3     1  UNL1       -0.2698
     16 C         142.5925  137.8068  158.0861 C.3     1  UNL1        0.0939
     17 C         142.1290  138.6411  159.2433 C.3     1  UNL1        0.1100
     18 C         142.0716  136.5101  155.8958 C.3     1  UNL1        0.0721
     19 C         142.2457  135.0294  156.0608 C.3     1  UNL1        0.0160
     20 C         141.3963  134.0814  155.2673 C.3     1  UNL1        0.0014
     21 C         141.5703  132.6007  155.4323 C.3     1  UNL1        0.0000
     22 C         142.5938  132.0680  156.3908 C.3     1  UNL1        0.0000
     23 C         143.4432  133.0161  157.1843 C.3     1  UNL1        0.0000
     24 C         143.2691  134.4968  157.0193 C.3     1  UNL1        0.0014
     25 C         138.4899  144.6778  165.0998 C.3     1  UNL1        0.4188
     26 F         138.0264  145.5120  166.2570 F       1  UNL1       -0.1659
     27 F         139.8956  145.1522  165.3207 F       1  UNL1       -0.1659
     28 F         137.0842  144.2034  164.8788 F       1  UNL1       -0.1659
     29 N         140.5967  144.3282  160.3627 N.pl3   1  UNL1        0.0814
     30 O         139.7265  144.6449  159.1826 O.2     1  UNL1        0.0415
     31 O         142.0566  144.6710  160.3316 O.co2   1  UNL1       -0.5760
@<TRIPOS>UNITY_ATOM_ATTR
29 1
charge 1
31 1
charge -1
@<TRIPOS>BOND
     1     1     2    2
     2     2     3   ar
     3     3     4   ar
     4     4    12    1
     5    12    13    1
     6    13    14    1
     7    14    15    1
     8    15    18    1
     9    18    19    1
    10    19    20    1
    11    20    21    1
    12    21    22    1
    13    22    23    1
    14    23    24    1
    15    15    16    1
    16    16    17    1
    17     4     5   ar
    18     5     6   ar
    19     6     7   ar
    20     7    29    1
    21    29    30    2
    22    29    31    1
    23     7     8   ar
    24     8     9   ar
    25     9    25    1
    26    25    26    1
    27    25    27    1
    28    25    28    1
    29     9    10   ar
    30    10    11   ar
    31    11     2   ar
    32    17    12    1
    33    11     6   ar
    34    24    19    1
@<TRIPOS>MOLECULE
*****
 31 34 0 0 0
SMALL
GASTEIGER

@<TRIPOS>ATOM
      1 O         138.4556  137.3469  165.6404 O.2     1  UNL1       -0.2651
      2 C         139.4437  138.2391  164.9493 C.ar    1  UNL1        0.2814
      3 N         139.8929  137.9215  163.5538 N.ar    1  UNL1       -0.1866
      4 C         140.8810  138.8137  162.8627 C.ar    1  UNL1        0.1665
      5 S         141.4198  140.0235  163.5669 S.2     1  UNL1       -0.0466
      6 C         140.9705  140.3411  164.9624 C.ar    1  UNL1        0.1059
      7 C         141.5093  141.5510  165.6667 C.ar    1  UNL1        0.2960
      8 C         141.0600  141.8685  167.0621 C.ar    1  UNL1        0.0797
      9 C         140.0720  140.9763  167.7533 C.ar    1  UNL1        0.0777
     10 C         139.5332  139.7665  167.0490 C.ar    1  UNL1        0.0096
     11 C         139.9825  139.4489  165.6535 C.ar    1  UNL1        0.0699
     12 N         141.3302  138.4961  161.4672 N.pl3   1  UNL1       -0.2852
     13 C         140.4502  138.8347  160.3006 C.3     1  UNL1        0.1100
     14 C         140.8994  138.5171  158.9052 C.3     1  UNL1        0.0939
     15 N         142.2287  137.8609  158.6762 N.3     1  UNL1       -0.2698
     16 C         143.1087  137.5222  159.8428 C.3     1  UNL1        0.0939
     17 C         142.6595  137.8399  161.2383 C.3     1  UNL1        0.1100
     18 C         142.6779  137.5433  157.2808 C.3     1  UNL1        0.0721
     19 C         142.4270  136.1816  156.7037 C.3     1  UNL1        0.0160
     20 C         141.4062  136.0031  155.6193 C.3     1  UNL1        0.0014
     21 C         141.1553  134.6415  155.0422 C.3     1  UNL1        0.0000
     22 C         141.9252  133.4584  155.5496 C.3     1  UNL1        0.0000
     23 C         142.9460  133.6369  156.6341 C.3     1  UNL1        0.0000
     24 C         143.1969  134.9985  157.2111 C.3     1  UNL1        0.0014
     25 C         139.6227  141.2940  169.1488 C.3     1  UNL1        0.4188
     26 F         139.1735  141.6116  170.5442 F       1  UNL1       -0.1659
     27 F         140.3018  142.6287  169.0636 F       1  UNL1       -0.1659
     28 F         138.9437  139.9592  169.2341 F       1  UNL1       -0.1659
     29 N         142.4974  142.4432  164.9756 N.pl3   1  UNL1        0.0814
     30 O         143.9681  142.1817  165.1128 O.2     1  UNL1        0.0415
     31 O         142.0148  143.5968  164.1472 O.co2   1  UNL1       -0.5760
@<TRIPOS>UNITY_ATOM_ATTR
29 1
charge 1
31 1
charge -1
@<TRIPOS>BOND
     1     1     2    2
     2     2     3   ar
     3     3     4   ar
     4     4    12    1
     5    12    13    1
     6    13    14    1
     7    14    15    1
     8    15    18    1
     9    18    19    1
    10    19    20    1
    11    20    21    1
    12    21    22    1
    13    22    23    1
    14    23    24    1
    15    15    16    1
    16    16    17    1
    17     4     5   ar
    18     5     6   ar
    19     6     7   ar
    20     7    29    1
    21    29    30    2
    22    29    31    1
    23     7     8   ar
    24     8     9   ar
    25     9    25    1
    26    25    26    1
    27    25    27    1
    28    25    28    1
    29     9    10   ar
    30    10    11   ar
    31    11     2   ar
    32    17    12    1
    33    11     6   ar
    34    24    19    1
@<TRIPOS>MOLECULE
*****
 31 34 0 0 0
SMALL
GASTEIGER

@<TRIPOS>ATOM
      1 O         144.3115  137.8898  166.7329 O.2     1  UNL1       -0.2651
      2 C         143.2959  138.5872  165.8772 C.ar    1  UNL1        0.2814
      3 N         143.3678  138.4721  164.3834 N.ar    1  UNL1       -0.1866
      4 C         142.3521  139.1695  163.5277 C.ar    1  UNL1        0.1665
      5 S         141.2646  139.9819  164.1659 S.2     1  UNL1       -0.0466
      6 C         141.1928  140.0970  165.6597 C.ar    1  UNL1        0.1059
      7 C         140.1052  140.9094  166.2979 C.ar    1  UNL1        0.2960
      8 C         140.0334  141.0245  167.7917 C.ar    1  UNL1        0.0797
      9 C         141.0490  140.3272  168.6474 C.ar    1  UNL1        0.0777
     10 C         142.1365  139.5147  168.0093 C.ar    1  UNL1        0.0096
     11 C         142.2084  139.3996  166.5154 C.ar    1  UNL1        0.0699
     12 N         142.4241  139.0543  162.0338 N.pl3   1  UNL1       -0.2852
     13 C         141.2102  138.6442  161.2539 C.3     1  UNL1        0.1100
     14 C         141.2820  138.5290  159.7601 C.3     1  UNL1        0.0939
     15 N         142.5678  138.8241  159.0461 N.3     1  UNL1       -0.2698
     16 C         143.7817  139.2343  159.8260 C.3     1  UNL1        0.0939
     17 C         143.7098  139.3494  161.3199 C.3     1  UNL1        0.1100
     18 C         142.6397  138.7090  157.5523 C.3     1  UNL1        0.0721
     19 C         142.2976  137.4110  156.8828 C.3     1  UNL1        0.0160
     20 C         141.1849  137.3557  155.8783 C.3     1  UNL1        0.0014
     21 C         140.8428  136.0578  155.2088 C.3     1  UNL1        0.0000
     22 C         141.6133  134.8151  155.5437 C.3     1  UNL1        0.0000
     23 C         142.7259  134.8705  156.5481 C.3     1  UNL1        0.0000
     24 C         143.0680  136.1684  157.2177 C.3     1  UNL1        0.0014
     25 C         140.9771  140.4423  170.1413 C.3     1  UNL1        0.4188
     26 F         140.9052  140.5574  171.6351 F       1  UNL1       -0.1659
     27 F         141.4673  139.0309  170.2736 F       1  UNL1       -0.1659
     28 F         140.4868  141.8537  170.0090 F       1  UNL1       -0.1659
     29 N         139.0896  141.6068  165.4422 N.pl3   1  UNL1        0.0814
     30 O         137.9202  140.8440  164.8938 O.2     1  UNL1        0.0415
     31 O         139.2434  143.0669  165.1349 O.co2   1  UNL1       -0.5760
@<TRIPOS>UNITY_ATOM_ATTR
29 1
charge 1
31 1
charge -1
@<TRIPOS>BOND
     1     1     2    2
     2     2     3   ar
     3     3     4   ar
     4     4    12    1
     5    12    13    1
     6    13    14    1
     7    14    15    1
     8    15    18    1
     9    18    19    1
    10    19    20    1
    11    20    21    1
    12    21    22    1
    13    22    23    1
    14    23    24    1
    15    15    16    1
    16    16    17    1
    17     4     5   ar
    18     5     6   ar
    19     6     7   ar
    20     7    29    1
    21    29    30    2
    22    29    31    1
    23     7     8   ar
    24     8     9   ar
    25     9    25    1
    26    25    26    1
    27    25    27    1
    28    25    28    1
    29     9    10   ar
    30    10    11   ar
    31    11     2   ar
    32    17    12    1
    33    11     6   ar
    34    24    19    1
@<TRIPOS>MOLECULE
*****
 31 34 0 0 0
SMALL
GASTEIGER

@<TRIPOS>ATOM
      1 O         136.9682  141.7906  162.8253 O.2     1  UNL1       -0.2651
      2 C         138.2663  142.4281  162.4271 C.ar    1  UNL1        0.2814
      3 N         138.4450  142.9599  161.0360 N.ar    1  UNL1       -0.1866
      4 C         139.7431  143.5974  160.6377 C.ar    1  UNL1        0.1665
      5 S         140.8624  143.7031  161.6306 S.2     1  UNL1       -0.0466
      6 C         140.6837  143.1713  163.0217 C.ar    1  UNL1        0.1059
      7 C         141.8031  143.2770  164.0146 C.ar    1  UNL1        0.2960
      8 C         141.6244  142.7452  165.4057 C.ar    1  UNL1        0.0797
      9 C         140.3264  142.1077  165.8040 C.ar    1  UNL1        0.0777
     10 C         139.2070  142.0020  164.8111 C.ar    1  UNL1        0.0096
     11 C         139.3857  142.5338  163.4199 C.ar    1  UNL1        0.0699
     12 N         139.9217  144.1292  159.2465 N.pl3   1  UNL1       -0.2852
     13 C         139.1734  143.5083  158.1044 C.3     1  UNL1        0.1100
     14 C         139.3520  144.0401  156.7133 C.3     1  UNL1        0.0939
     15 N         140.2790  145.1928  156.4642 N.3     1  UNL1       -0.2698
     16 C         141.0274  145.8137  157.6064 C.3     1  UNL1        0.0939
     17 C         140.8487  145.2819  158.9975 C.3     1  UNL1        0.1100
     18 C         140.4576  145.7245  155.0731 C.3     1  UNL1        0.0721
     19 C         140.0933  147.1457  154.7609 C.3     1  UNL1        0.0160
     20 C         139.1693  147.9002  155.6702 C.3     1  UNL1        0.0014
     21 C         138.8050  149.3214  155.3580 C.3     1  UNL1        0.0000
     22 C         139.3647  149.9881  154.1364 C.3     1  UNL1        0.0000
     23 C         140.2887  149.2336  153.2271 C.3     1  UNL1        0.0000
     24 C         140.6530  147.8124  153.5393 C.3     1  UNL1        0.0014
     25 C         140.1477  141.5759  167.1952 C.3     1  UNL1        0.4188
     26 F         139.9691  141.0441  168.5863 F       1  UNL1       -0.1659
     27 F         140.9404  142.7280  167.7374 F       1  UNL1       -0.1659
     28 F         139.3550  140.4237  166.6530 F       1  UNL1       -0.1659
     29 N         143.1012  143.9145  163.6164 N.pl3   1  UNL1        0.0814
     30 O         143.2315  145.4088  163.6082 O.2     1  UNL1        0.0415
     31 O         144.2690  143.0577  163.2263 O.co2   1  UNL1       -0.5760
@<TRIPOS>UNITY_ATOM_ATTR
29 1
charge 1
31 1
charge -1
@<TRIPOS>BOND
     1     1     2    2
     2     2     3   ar
     3     3     4   ar
     4     4    12    1
     5    12    13    1
     6    13    14    1
     7    14    15    1
     8    15    18    1
     9    18    19    1
    10    19    20    1
    11    20    21    1
    12    21    22    1
    13    22    23    1
    14    23    24    1
    15    15    16    1
    16    16    17    1
    17     4     5   ar
    18     5     6   ar
    19     6     7   ar
    20     7    29    1
    21    29    30    2
    22    29    31    1
    23     7     8   ar
    24     8     9   ar
    25     9    25    1
    26    25    26    1
    27    25    27    1
    28    25    28    1
    29     9    10   ar
    30    10    11   ar
    31    11     2   ar
    32    17    12    1
    33    11     6   ar
    34    24    19    1
@<TRIPOS>MOLECULE
*****
 31 34 0 0 0
SMALL
GASTEIGER

@<TRIPOS>ATOM
      1 O         138.0428  144.2226  164.3073 O.2     1  UNL1       -0.2651
      2 C         138.4103  143.2280  163.2463 C.ar    1  UNL1        0.2814
      3 N         138.6075  143.6807  161.8299 N.ar    1  UNL1       -0.1866
      4 C         138.9749  142.6861  160.7689 C.ar    1  UNL1        0.1665
      5 S         139.1452  141.2388  161.1243 S.2     1  UNL1       -0.0466
      6 C         138.9480  140.7861  162.5406 C.ar    1  UNL1        0.1059
      7 C         139.1182  139.3388  162.8961 C.ar    1  UNL1        0.2960
      8 C         138.9210  138.8861  164.3124 C.ar    1  UNL1        0.0797
      9 C         138.5536  139.8807  165.3735 C.ar    1  UNL1        0.0777
     10 C         138.3833  141.3280  165.0181 C.ar    1  UNL1        0.0096
     11 C         138.5805  141.7807  163.6017 C.ar    1  UNL1        0.0699
     12 N         139.1721  143.1388  159.3525 N.pl3   1  UNL1       -0.2852
     13 C         140.2474  144.1322  159.0255 C.3     1  UNL1        0.1100
     14 C         140.4446  144.5850  157.6091 C.3     1  UNL1        0.0939
     15 N         139.5666  144.0443  156.5197 N.3     1  UNL1       -0.2698
     16 C         138.4913  143.0509  156.8467 C.3     1  UNL1        0.0939
     17 C         138.2941  142.5982  158.2632 C.3     1  UNL1        0.1100
     18 C         139.7638  144.4971  155.1034 C.3     1  UNL1        0.0721
     19 C         139.7712  145.9614  154.7782 C.3     1  UNL1        0.0160
     20 C         140.6273  146.4769  153.6596 C.3     1  UNL1        0.0014
     21 C         140.6348  147.9412  153.3344 C.3     1  UNL1        0.0000
     22 C         139.7862  148.8900  154.1278 C.3     1  UNL1        0.0000
     23 C         138.9301  148.3745  155.2464 C.3     1  UNL1        0.0000
     24 C         138.9226  146.9102  155.5716 C.3     1  UNL1        0.0014
     25 C         138.3564  139.4280  166.7899 C.3     1  UNL1        0.4188
     26 F         138.1592  138.9753  168.2063 F       1  UNL1       -0.1659
     27 F         139.1729  140.5890  167.2746 F       1  UNL1       -0.1659
     28 F         137.5398  138.2669  166.3051 F       1  UNL1       -0.1659
     29 N         139.4856  138.3441  161.8351 N.pl3   1  UNL1        0.0814
     30 O         138.5878  138.1456  160.6499 O.2     1  UNL1        0.0415
     31 O         140.7509  137.5481  161.9592 O.co2   1  UNL1       -0.5760
@<TRIPOS>UNITY_ATOM_ATTR
29 1
charge 1
31 1
charge -1
@<TRIPOS>BOND
     1     1     2    2
     2     2     3   ar
     3     3     4   ar
     4     4    12    1
     5    12    13    1
     6    13    14    1
     7    14    15    1
     8    15    18    1
     9    18    19    1
    10    19    20    1
    11    20    21    1
    12    21    22    1
    13    22    23    1
    14    23    24    1
    15    15    16    1
    16    16    17    1
    17     4     5   ar
    18     5     6   ar
    19     6     7   ar
    20     7    29    1
    21    29    30    2
    22    29    31    1
    23     7     8   ar
    24     8     9   ar
    25     9    25    1
    26    25    26    1
    27    25    27    1
    28    25    28    1
    29     9    10   ar
    30    10    11   ar
    31    11     2   ar
    32    17    12    1
    33    11     6   ar
    34    24    19    1
@<TRIPOS>MOLECULE
*****
 31 34 0 0 0
SMALL
GASTEIGER

@<TRIPOS>ATOM
      1 O         143.1341  144.1813  161.4637 O.2     1  UNL1       -0.2651
      2 C         142.3513  142.9302  161.1956 C.ar    1  UNL1        0.2814
      3 N         142.8135  141.9676  160.1422 N.ar    1  UNL1       -0.1866
      4 C         142.0308  140.7164  159.8741 C.ar    1  UNL1        0.1665
      5 S         140.7858  140.4278  160.6594 S.2     1  UNL1       -0.0466
      6 C         140.3236  141.3904  161.7128 C.ar    1  UNL1        0.1059
      7 C         139.0786  141.1019  162.4981 C.ar    1  UNL1        0.2960
      8 C         138.6164  142.0645  163.5515 C.ar    1  UNL1        0.0797
      9 C         139.3991  143.3157  163.8196 C.ar    1  UNL1        0.0777
     10 C         140.6441  143.6042  163.0343 C.ar    1  UNL1        0.0096
     11 C         141.1064  142.6416  161.9809 C.ar    1  UNL1        0.0699
     12 N         142.4931  139.7538  158.8206 N.pl3   1  UNL1       -0.2852
     13 C         142.1870  138.2915  158.9546 C.3     1  UNL1        0.1100
     14 C         142.6492  137.3289  157.9012 C.3     1  UNL1        0.0939
     15 N         143.4176  137.8286  156.7137 N.3     1  UNL1       -0.2698
     16 C         143.7237  139.2909  156.5797 C.3     1  UNL1        0.0939
     17 C         143.2614  140.2535  157.6332 C.3     1  UNL1        0.1100
     18 C         143.8798  136.8660  155.6603 C.3     1  UNL1        0.0721
     19 C         143.2748  135.4958  155.5789 C.3     1  UNL1        0.0160
     20 C         142.1494  135.2284  154.6239 C.3     1  UNL1        0.0014
     21 C         141.5444  133.8582  154.5425 C.3     1  UNL1        0.0000
     22 C         142.0647  132.7555  155.4161 C.3     1  UNL1        0.0000
     23 C         143.1901  133.0229  156.3711 C.3     1  UNL1        0.0000
     24 C         143.7951  134.3931  156.4525 C.3     1  UNL1        0.0014
     25 C         138.9368  144.2783  164.8731 C.3     1  UNL1        0.4188
     26 F         138.4746  145.2408  165.9266 F       1  UNL1       -0.1659
     27 F         140.0660  143.8480  165.7617 F       1  UNL1       -0.1659
     28 F         137.8076  144.7086  163.9845 F       1  UNL1       -0.1659
     29 N         138.2958  139.8507  162.2300 N.pl3   1  UNL1        0.0814
     30 O         137.3389  139.7975  161.0760 O.2     1  UNL1        0.0415
     31 O         138.4699  138.6528  163.1158 O.co2   1  UNL1       -0.5760
@<TRIPOS>UNITY_ATOM_ATTR
29 1
charge 1
31 1
charge -1
@<TRIPOS>BOND
     1     1     2    2
     2     2     3   ar
     3     3     4   ar
     4     4    12    1
     5    12    13    1
     6    13    14    1
     7    14    15    1
     8    15    18    1
     9    18    19    1
    10    19    20    1
    11    20    21    1
    12    21    22    1
    13    22    23    1
    14    23    24    1
    15    15    16    1
    16    16    17    1
    17     4     5   ar
    18     5     6   ar
    19     6     7   ar
    20     7    29    1
    21    29    30    2
    22    29    31    1
    23     7     8   ar
    24     8     9   ar
    25     9    25    1
    26    25    26    1
    27    25    27    1
    28    25    28    1
    29     9    10   ar
    30    10    11   ar
    31    11     2   ar
    32    17    12    1
    33    11     6   ar
    34    24    19    1
@<TRIPOS>MOLECULE
*****
 31 34 0 0 0
SMALL
GASTEIGER

@<TRIPOS>ATOM
      1 O         145.4700  142.2276  164.3973 O.2     1  UNL1       -0.2651
      2 C         144.0864  142.6663  164.0186 C.ar    1  UNL1        0.2814
      3 N         143.7965  143.1032  162.6133 N.ar    1  UNL1       -0.1866
      4 C         142.4129  143.5419  162.2347 C.ar    1  UNL1        0.1665
      5 S         141.3194  143.5436  163.2613 S.2     1  UNL1       -0.0466
      6 C         141.6093  143.1067  164.6666 C.ar    1  UNL1        0.1059
      7 C         140.5158  143.1084  165.6934 C.ar    1  UNL1        0.2960
      8 C         140.8057  142.6715  167.0987 C.ar    1  UNL1        0.0797
      9 C         142.1893  142.2328  167.4774 C.ar    1  UNL1        0.0777
     10 C         143.2828  142.2311  166.4507 C.ar    1  UNL1        0.0096
     11 C         142.9929  142.6680  165.0453 C.ar    1  UNL1        0.0699
     12 N         142.1230  143.9789  160.8293 N.pl3   1  UNL1       -0.2852
     13 C         141.0502  144.9936  160.5656 C.3     1  UNL1        0.1100
     14 C         140.7603  145.4306  159.1603 C.3     1  UNL1        0.0939
     15 N         141.5430  144.8528  158.0186 N.3     1  UNL1       -0.2698
     16 C         142.6158  143.8380  158.2822 C.3     1  UNL1        0.0939
     17 C         142.9057  143.4010  159.6876 C.3     1  UNL1        0.1100
     18 C         141.2531  145.2897  156.6133 C.3     1  UNL1        0.0721
     19 C         139.9688  144.8855  155.9520 C.3     1  UNL1        0.0160
     20 C         138.9596  145.9286  155.5732 C.3     1  UNL1        0.0014
     21 C         137.6753  145.5243  154.9120 C.3     1  UNL1        0.0000
     22 C         137.4002  144.0771  154.6296 C.3     1  UNL1        0.0000
     23 C         138.4094  143.0341  155.0085 C.3     1  UNL1        0.0000
     24 C         139.6937  143.4383  155.6697 C.3     1  UNL1        0.0014
     25 C         142.4792  141.7958  168.8828 C.3     1  UNL1        0.4188
     26 F         142.7692  141.3589  170.2881 F       1  UNL1       -0.1659
     27 F         143.8190  142.4669  168.8149 F       1  UNL1       -0.1659
     28 F         141.1395  141.1248  168.9506 F       1  UNL1       -0.1659
     29 N         139.1322  143.5471  165.3148 N.pl3   1  UNL1        0.0814
     30 O         138.7324  144.9845  165.4697 O.2     1  UNL1        0.0415
     31 O         138.1485  142.5484  164.7812 O.co2   1  UNL1       -0.5760
@<TRIPOS>UNITY_ATOM_ATTR
29 1
charge 1
31 1
charge -1
@<TRIPOS>BOND
     1     1     2    2
     2     2     3   ar
     3     3     4   ar
     4     4    12    1
     5    12    13    1
     6    13    14    1
     7    14    15    1
     8    15    18    1
     9    18    19    1
    10    19    20    1
    11    20    21    1
    12    21    22    1
    13    22    23    1
    14    23    24    1
    15    15    16    1
    16    16    17    1
    17     4     5   ar
    18     5     6   ar
    19     6     7   ar
    20     7    29    1
    21    29    30    2
    22    29    31    1
    23     7     8   ar
    24     8     9   ar
    25     9    25    1
    26    25    26    1
    27    25    27    1
    28    25    28    1
    29     9    10   ar
    30    10    11   ar
    31    11     2   ar
    32    17    12    1
    33    11     6   ar
    34    24    19    1
@<TRIPOS>MOLECULE
*****
 31 34 0 0 0
SMALL
GASTEIGER

@<TRIPOS>ATOM
      1 O         138.9394  138.0439  160.5979 O.2     1  UNL1       -0.2651
      2 C         139.0015  139.4793  161.0289 C.ar    1  UNL1        0.2814
      3 N         139.2369  140.5578  160.0134 N.ar    1  UNL1       -0.1866
      4 C         139.2989  141.9932  160.4444 C.ar    1  UNL1        0.1665
      5 S         139.1255  142.3501  161.8909 S.2     1  UNL1       -0.0466
      6 C         138.8901  141.2716  162.9064 C.ar    1  UNL1        0.1059
      7 C         138.7167  141.6285  164.3530 C.ar    1  UNL1        0.2960
      8 C         138.4813  140.5500  165.3686 C.ar    1  UNL1        0.0797
      9 C         138.4192  139.1146  164.9376 C.ar    1  UNL1        0.0777
     10 C         138.5926  138.7577  163.4910 C.ar    1  UNL1        0.0096
     11 C         138.8281  139.8362  162.4754 C.ar    1  UNL1        0.0699
     12 N         139.5344  143.0717  159.4287 N.pl3   1  UNL1       -0.2852
     13 C         140.2364  144.3362  159.8266 C.3     1  UNL1        0.1100
     14 C         140.4719  145.4147  158.8110 C.3     1  UNL1        0.0939
     15 N         140.0053  145.2287  157.3976 N.3     1  UNL1       -0.2698
     16 C         139.3033  143.9643  156.9997 C.3     1  UNL1        0.0939
     17 C         139.0679  142.8857  158.0153 C.3     1  UNL1        0.1100
     18 C         140.2408  146.3072  156.3820 C.3     1  UNL1        0.0721
     19 C         141.1264  146.0442  155.2003 C.3     1  UNL1        0.0160
     20 C         142.3381  145.1730  155.3502 C.3     1  UNL1        0.0014
     21 C         143.2237  144.9100  154.1685 C.3     1  UNL1        0.0000
     22 C         142.8975  145.5182  152.8367 C.3     1  UNL1        0.0000
     23 C         141.6858  146.3895  152.6868 C.3     1  UNL1        0.0000
     24 C         140.8002  146.6525  153.8685 C.3     1  UNL1        0.0014
     25 C         138.1838  138.0360  165.9532 C.3     1  UNL1        0.4188
     26 F         137.9483  136.9576  166.9688 F       1  UNL1       -0.1659
     27 F         137.3846  138.9944  166.7855 F       1  UNL1       -0.1659
     28 F         138.9830  137.0777  165.1209 F       1  UNL1       -0.1659
     29 N         138.7787  143.0639  164.7840 N.pl3   1  UNL1        0.0814
     30 O         137.5443  143.9149  164.7378 O.2     1  UNL1        0.0415
     31 O         140.0751  143.6483  165.2612 O.co2   1  UNL1       -0.5760
@<TRIPOS>UNITY_ATOM_ATTR
29 1
charge 1
31 1
charge -1
@<TRIPOS>BOND
     1     1     2    2
     2     2     3   ar
     3     3     4   ar
     4     4    12    1
     5    12    13    1
     6    13    14    1
     7    14    15    1
     8    15    18    1
     9    18    19    1
    10    19    20    1
    11    20    21    1
    12    21    22    1
    13    22    23    1
    14    23    24    1
    15    15    16    1
    16    16    17    1
    17     4     5   ar
    18     5     6   ar
    19     6     7   ar
    20     7    29    1
    21    29    30    2
    22    29    31    1
    23     7     8   ar
    24     8     9   ar
    25     9    25    1
    26    25    26    1
    27    25    27    1
    28    25    28    1
    29     9    10   ar
    30    10    11   ar
    31    11     2   ar
    32    17    12    1
    33    11     6   ar
    34    24    19    1
@<TRIPOS>MOLECULE
*****
 31 34 0 0 0
SMALL
GASTEIGER

@<TRIPOS>ATOM
      1 O         137.9369  138.7000  161.1857 O.2     1  UNL1       -0.2651
      2 C         138.4188  140.1134  161.3277 C.ar    1  UNL1        0.2814
      3 N         138.6359  140.9580  160.1073 N.ar    1  UNL1       -0.1866
      4 C         139.1179  142.3713  160.2493 C.ar    1  UNL1        0.1665
      5 S         139.3827  142.9401  161.6118 S.2     1  UNL1       -0.0466
      6 C         139.1656  142.0955  162.8322 C.ar    1  UNL1        0.1059
      7 C         139.4304  142.6643  164.1948 C.ar    1  UNL1        0.2960
      8 C         139.2133  141.8197  165.4152 C.ar    1  UNL1        0.0797
      9 C         138.7313  140.4063  165.2732 C.ar    1  UNL1        0.0777
     10 C         138.4665  139.8376  163.9107 C.ar    1  UNL1        0.0096
     11 C         138.6836  140.6822  162.6902 C.ar    1  UNL1        0.0699
     12 N         139.3350  143.2159  159.0288 N.pl3   1  UNL1       -0.2852
     13 C         138.6049  142.8985  157.7575 C.3     1  UNL1        0.1100
     14 C         138.8219  143.7430  156.5371 C.3     1  UNL1        0.0939
     15 N         139.7692  144.9050  156.5878 N.3     1  UNL1       -0.2698
     16 C         140.4993  145.2225  157.8591 C.3     1  UNL1        0.0939
     17 C         140.2822  144.3779  159.0796 C.3     1  UNL1        0.1100
     18 C         139.9863  145.7495  155.3673 C.3     1  UNL1        0.0721
     19 C         139.6065  147.2006  155.3821 C.3     1  UNL1        0.0160
     20 C         138.8539  147.7671  156.5494 C.3     1  UNL1        0.0014
     21 C         138.4742  149.2181  156.5642 C.3     1  UNL1        0.0000
     22 C         138.8469  150.1027  155.4116 C.3     1  UNL1        0.0000
     23 C         139.5995  149.5362  154.2442 C.3     1  UNL1        0.0000
     24 C         139.9793  148.0852  154.2295 C.3     1  UNL1        0.0014
     25 C         138.5142  139.5617  166.4937 C.3     1  UNL1        0.4188
     26 F         138.2971  138.7172  167.7141 F       1  UNL1       -0.1659
     27 F         137.7704  138.5563  165.6656 F       1  UNL1       -0.1659
     28 F         139.2580  140.5672  167.3218 F       1  UNL1       -0.1659
     29 N         139.9123  144.0776  164.3368 N.pl3   1  UNL1        0.0814
     30 O         141.3831  144.3725  164.3329 O.2     1  UNL1        0.0415
     31 O         138.9236  145.1961  164.4827 O.co2   1  UNL1       -0.5760
@<TRIPOS>UNITY_ATOM_ATTR
29 1
charge 1
31 1
charge -1
@<TRIPOS>BOND
     1     1     2    2
     2     2     3   ar
     3     3     4   ar
     4     4    12    1
     5    12    13    1
     6    13    14    1
     7    14    15    1
     8    15    18    1
     9    18    19    1
    10    19    20    1
    11    20    21    1
    12    21    22    1
    13    22    23    1
    14    23    24    1
    15    15    16    1
    16    16    17    1
    17     4     5   ar
    18     5     6   ar
    19     6     7   ar
    20     7    29    1
    21    29    30    2
    22    29    31    1
    23     7     8   ar
    24     8     9   ar
    25     9    25    1
    26    25    26    1
    27    25    27    1
    28    25    28    1
    29     9    10   ar
    30    10    11   ar
    31    11     2   ar
    32    17    12    1
    33    11     6   ar
    34    24    19    1
