@<TRIPOS>MOLECULE
*****
 36 38 0 0 0
SMALL
GASTEIGER

@<TRIPOS>ATOM
      1 S         142.8771  140.7931  167.5660 S.O2    1  UNL1        0.0455
      2 O         142.6004  139.3878  167.1204 O.2     1  UNL1       -0.1572
      3 O         143.1539  142.1984  168.0116 O.2     1  UNL1       -0.1572
      4 C         144.5848  141.7419  163.5121 C.3     1  UNL1        0.0032
      5 C         144.3175  140.3174  163.8986 C.3     1  UNL1        0.0192
      6 C         143.7483  140.0012  165.2499 C.3     1  UNL1        0.0954
      7 N         143.4464  141.1094  166.2147 N.3     1  UNL1       -0.1594
      8 C         143.7138  142.5338  165.8282 C.3     1  UNL1        0.0954
      9 C         144.2830  142.8501  164.4769 C.3     1  UNL1        0.0192
     10 C         145.1541  142.0582  162.1608 C.3     1  UNL1        0.0049
     11 C         144.2401  142.4211  161.0282 C.3     1  UNL1        0.0305
     12 C         142.7649  139.5978  160.3195 C.3     1  UNL1        0.0553
     13 C         142.0915  140.8463  160.8071 C.ar    1  UNL1        0.0966
     14 N         140.6219  141.0163  161.0544 N.ar    1  UNL1       -0.0821
     15 O         140.3916  142.4192  161.5331 O.2     1  UNL1       -0.3584
     16 C         141.7190  143.1162  161.5815 C.ar    1  UNL1        0.1504
     17 C         141.9544  144.5359  162.0044 C.3     1  UNL1        0.0750
     18 C         142.7696  142.1440  161.1328 C.ar    1  UNL1        0.0274
     19 C         142.3079  140.4768  168.9172 C.3     1  UNL1        0.1895
     20 C         141.5714  141.5329  169.6868 C.3     1  UNL1        0.1104
     21 C         142.6112  141.4714  170.7662 C.3     1  UNL1        0.0243
     22 N         140.8350  142.5890  170.4563 N.am    1  UNL1       -0.1662
     23 O         140.4444  142.3420  171.8833 O.3     1  UNL1       -0.2915
     24 C         140.4891  143.8921  169.7988 C.2     1  UNL1        0.3267
     25 O         139.7526  144.9483  170.5684 O.2     1  UNL1       -0.2627
     26 H         140.7412  141.4583  172.1515 H       1  UNL1        0.2417
     27 C         140.5317  141.5944  168.6074 C.3     1  UNL1        0.0300
     28 C         139.4838  140.5253  168.5137 C.3     1  UNL1        0.0603
     29 C         138.7039  140.1305  169.7328 C.3     1  UNL1        0.0080
     30 C         139.2156  139.8508  167.2010 C.ar    1  UNL1        0.1390
     31 N         138.4747  138.5470  167.1652 N.ar    1  UNL1       -0.2268
     32 C         138.2066  137.8726  165.8524 C.ar    1  UNL1        0.1314
     33 C         138.6793  138.5020  164.5755 C.ar    1  UNL1        0.1783
     34 F         138.4112  137.8276  163.2628 F       1  UNL1       -0.2009
     35 C         139.4202  139.8057  164.6114 C.ar    1  UNL1        0.1314
     36 N         139.6883  140.4802  165.9241 N.ar    1  UNL1       -0.2268
@<TRIPOS>BOND
     1    12    13    1
     2    13    14   ar
     3    14    15   ar
     4    15    16   ar
     5    16    17    1
     6    16    18   ar
     7    18    11    1
     8    11    10    1
     9    10     4    1
    10     4     5    1
    11     5     6    1
    12     6     7    1
    13     7     1    1
    14     1     2    2
    15     1     3    2
    16     1    19    1
    17    19    20    1
    18    20    21    1
    19    20    27    1
    20    27    28    1
    21    28    29    1
    22    28    30    1
    23    30    31   ar
    24    31    32   ar
    25    32    33   ar
    26    33    34    1
    27    33    35   ar
    28    35    36   ar
    29    20    22    1
    30    22    23    1
    31    22    24   am
    32    24    25    2
    33     7     8    1
    34     8     9    1
    35    18    13   ar
    36     9     4    1
    37    36    30   ar
    38    23    26    1
@<TRIPOS>MOLECULE
*****
 36 38 0 0 0
SMALL
GASTEIGER

@<TRIPOS>ATOM
      1 S         142.9925  141.0666  167.0268 S.O2    1  UNL1        0.0455
      2 O         143.2536  142.4605  167.5154 O.2     1  UNL1       -0.1572
      3 O         142.7315  139.6727  166.5383 O.2     1  UNL1       -0.1572
      4 C         144.2092  142.2950  162.8722 C.3     1  UNL1        0.0032
      5 C         144.1620  140.8419  163.2411 C.3     1  UNL1        0.0192
      6 C         143.7565  140.4324  164.6259 C.3     1  UNL1        0.0954
      7 N         143.3981  141.4761  165.6419 N.3     1  UNL1       -0.1594
      8 C         143.4452  142.9292  165.2731 C.3     1  UNL1        0.0954
      9 C         143.8508  143.3387  163.8882 C.3     1  UNL1        0.0192
     10 C         144.6148  142.7045  161.4873 C.3     1  UNL1        0.0049
     11 C         143.6595  142.5311  160.3440 C.3     1  UNL1        0.0305
     12 C         142.1887  139.6308  160.6163 C.3     1  UNL1        0.0553
     13 C         143.1398  140.0384  159.5304 C.ar    1  UNL1        0.0966
     14 N         143.5819  139.1845  158.3792 N.ar    1  UNL1       -0.0821
     15 O         144.5313  139.9899  157.5424 O.2     1  UNL1       -0.3584
     16 C         144.6759  141.3416  158.1766 C.ar    1  UNL1        0.1504
     17 C         145.5304  142.4659  157.6709 C.3     1  UNL1        0.0750
     18 C         143.8159  141.3715  159.4053 C.ar    1  UNL1        0.0274
     19 C         142.5870  140.6571  168.4117 C.3     1  UNL1        0.1895
     20 C         141.9047  141.6411  169.3152 C.3     1  UNL1        0.1104
     21 C         143.0467  141.5443  170.2830 C.3     1  UNL1        0.0243
     22 N         141.2225  142.6251  170.2187 N.am    1  UNL1       -0.1662
     23 O         141.2075  142.3969  171.7011 O.3     1  UNL1       -0.2915
     24 C         140.5552  143.8374  169.6397 C.2     1  UNL1        0.3267
     25 O         139.8729  144.8213  170.5432 O.2     1  UNL1       -0.2627
     26 H         141.6793  141.5746  171.9064 H       1  UNL1        0.2417
     27 C         140.7628  141.7380  168.3474 C.3     1  UNL1        0.0300
     28 C         139.7138  140.6663  168.3155 C.3     1  UNL1        0.0603
     29 C         139.0208  140.2571  169.5814 C.3     1  UNL1        0.0080
     30 C         139.3576  140.0038  167.0177 C.ar    1  UNL1        0.1390
     31 N         138.7518  138.6315  167.0176 N.ar    1  UNL1       -0.2268
     32 C         138.3957  137.9690  165.7199 C.ar    1  UNL1        0.1314
     33 C         138.6454  138.6787  164.4222 C.ar    1  UNL1        0.1783
     34 F         138.2893  138.0162  163.1244 F       1  UNL1       -0.2009
     35 C         139.2512  140.0509  164.4223 C.ar    1  UNL1        0.1314
     36 N         139.6073  140.7135  165.7200 N.ar    1  UNL1       -0.2268
@<TRIPOS>BOND
     1    12    13    1
     2    13    14   ar
     3    14    15   ar
     4    15    16   ar
     5    16    17    1
     6    16    18   ar
     7    18    11    1
     8    11    10    1
     9    10     4    1
    10     4     5    1
    11     5     6    1
    12     6     7    1
    13     7     1    1
    14     1     2    2
    15     1     3    2
    16     1    19    1
    17    19    20    1
    18    20    21    1
    19    20    27    1
    20    27    28    1
    21    28    29    1
    22    28    30    1
    23    30    31   ar
    24    31    32   ar
    25    32    33   ar
    26    33    34    1
    27    33    35   ar
    28    35    36   ar
    29    20    22    1
    30    22    23    1
    31    22    24   am
    32    24    25    2
    33     7     8    1
    34     8     9    1
    35    18    13   ar
    36     9     4    1
    37    36    30   ar
    38    23    26    1
@<TRIPOS>MOLECULE
*****
 36 38 0 0 0
SMALL
GASTEIGER

@<TRIPOS>ATOM
      1 S         142.9621  138.3469  160.6560 S.O2    1  UNL1        0.0455
      2 O         144.3996  138.7699  160.5891 O.2     1  UNL1       -0.1572
      3 O         141.5245  137.9238  160.7228 O.2     1  UNL1       -0.1572
      4 C         143.0752  138.6723  165.1427 C.3     1  UNL1        0.0032
      5 C         144.1734  139.2768  164.3190 C.3     1  UNL1        0.0192
      6 C         144.1357  139.1683  162.8234 C.3     1  UNL1        0.0954
      7 N         142.9998  138.4553  162.1516 N.3     1  UNL1       -0.1594
      8 C         141.9016  137.8509  162.9753 C.3     1  UNL1        0.0954
      9 C         141.9393  137.9594  164.4709 C.3     1  UNL1        0.0192
     10 C         143.1129  138.7808  166.6384 C.3     1  UNL1        0.0049
     11 C         142.5910  140.0140  167.3143 C.3     1  UNL1        0.0305
     12 C         142.8033  139.8290  170.5654 C.3     1  UNL1        0.0553
     13 C         141.5358  139.8301  169.7633 C.ar    1  UNL1        0.0966
     14 N         140.1433  139.7464  170.3147 N.ar    1  UNL1       -0.0821
     15 O         139.1851  139.7797  169.1611 O.2     1  UNL1       -0.3584
     16 C         139.9855  139.8840  167.8967 C.ar    1  UNL1        0.1504
     17 C         139.4305  139.9462  166.5045 C.3     1  UNL1        0.0750
     18 C         141.4382  139.9151  168.2690 C.ar    1  UNL1        0.0274
     19 C         142.9244  138.2384  159.1604 C.3     1  UNL1        0.1895
     20 C         141.8572  138.9507  158.3834 C.3     1  UNL1        0.1104
     21 C         142.2619  140.2485  159.0173 C.3     1  UNL1        0.0243
     22 N         140.7900  139.6629  157.6064 N.am    1  UNL1       -0.1662
     23 O         141.1507  140.8229  156.7265 O.3     1  UNL1       -0.2915
     24 C         139.3621  139.2151  157.7092 C.2     1  UNL1        0.3267
     25 O         138.2949  139.9274  156.9322 O.2     1  UNL1       -0.2627
     26 H         142.1067  140.9799  156.7741 H       1  UNL1        0.2417
     27 C         141.4526  137.6528  157.7494 C.3     1  UNL1        0.0300
     28 C         142.3026  137.0472  156.6722 C.3     1  UNL1        0.0603
     29 C         143.0980  137.9316  155.7582 C.3     1  UNL1        0.0080
     30 C         142.3573  135.5571  156.5087 C.ar    1  UNL1        0.1390
     31 N         141.4685  134.8792  155.5084 N.ar    1  UNL1       -0.2268
     32 C         141.5231  133.3891  155.3450 C.ar    1  UNL1        0.1314
     33 C         142.4666  132.5770  156.1819 C.ar    1  UNL1        0.1783
     34 F         142.5213  131.0869  156.0184 F       1  UNL1       -0.2009
     35 C         143.3553  133.2549  157.1821 C.ar    1  UNL1        0.1314
     36 N         143.3007  134.7449  157.3456 N.ar    1  UNL1       -0.2268
@<TRIPOS>BOND
     1    12    13    1
     2    13    14   ar
     3    14    15   ar
     4    15    16   ar
     5    16    17    1
     6    16    18   ar
     7    18    11    1
     8    11    10    1
     9    10     4    1
    10     4     5    1
    11     5     6    1
    12     6     7    1
    13     7     1    1
    14     1     2    2
    15     1     3    2
    16     1    19    1
    17    19    20    1
    18    20    21    1
    19    20    27    1
    20    27    28    1
    21    28    29    1
    22    28    30    1
    23    30    31   ar
    24    31    32   ar
    25    32    33   ar
    26    33    34    1
    27    33    35   ar
    28    35    36   ar
    29    20    22    1
    30    22    23    1
    31    22    24   am
    32    24    25    2
    33     7     8    1
    34     8     9    1
    35    18    13   ar
    36     9     4    1
    37    36    30   ar
    38    23    26    1
@<TRIPOS>MOLECULE
*****
 36 38 0 0 0
SMALL
GASTEIGER

@<TRIPOS>ATOM
      1 S         142.7987  141.3726  166.6096 S.O2    1  UNL1        0.0455
      2 O         143.0644  142.7727  167.0778 O.2     1  UNL1       -0.1572
      3 O         142.5329  139.9726  166.1415 O.2     1  UNL1       -0.1572
      4 C         143.1045  142.7441  162.3346 C.3     1  UNL1        0.0032
      5 C         143.1414  141.2796  162.6569 C.3     1  UNL1        0.0192
      6 C         143.0394  140.8225  164.0819 C.3     1  UNL1        0.0954
      7 N         142.9006  141.8298  165.1846 N.3     1  UNL1       -0.1594
      8 C         142.8637  143.2943  164.8623 C.3     1  UNL1        0.0954
      9 C         142.9657  143.7514  163.4374 C.3     1  UNL1        0.0192
     10 C         143.2064  143.2012  160.9096 C.3     1  UNL1        0.0049
     11 C         142.0159  143.1008  160.0028 C.3     1  UNL1        0.0305
     12 C         140.3606  145.6693  161.1482 C.3     1  UNL1        0.0553
     13 C         139.8715  144.2519  161.1083 C.ar    1  UNL1        0.0966
     14 N         138.5358  143.7662  161.5878 N.ar    1  UNL1       -0.0821
     15 O         138.4711  142.2853  161.3576 O.2     1  UNL1       -0.3584
     16 C         139.7670  141.8558  160.7358 C.ar    1  UNL1        0.1504
     17 C         140.1330  140.4566  160.3380 C.3     1  UNL1        0.0750
     18 C         140.6324  143.0713  160.5818 C.ar    1  UNL1        0.0274
     19 C         142.6967  140.9155  168.0346 C.3     1  UNL1        0.1895
     20 C         141.9968  141.7711  169.0485 C.3     1  UNL1        0.1104
     21 C         143.1857  141.6672  169.9571 C.3     1  UNL1        0.0243
     22 N         141.2968  142.6267  170.0624 N.am    1  UNL1       -0.1662
     23 O         141.3593  142.2684  171.5176 O.3     1  UNL1       -0.2915
     24 C         140.5342  143.8407  169.6210 C.2     1  UNL1        0.3267
     25 O         139.8342  144.6963  170.6349 O.2     1  UNL1       -0.2627
     26 H         141.8877  141.4627  171.6297 H       1  UNL1        0.2417
     27 C         140.8078  141.8751  168.1399 C.3     1  UNL1        0.0300
     28 C         139.8037  140.7620  168.0883 C.3     1  UNL1        0.0603
     29 C         139.2569  140.1856  169.3607 C.3     1  UNL1        0.0080
     30 C         139.3463  140.2252  166.7645 C.ar    1  UNL1        0.1390
     31 N         138.9416  138.7863  166.6379 N.ar    1  UNL1       -0.2268
     32 C         138.4842  138.2495  165.3140 C.ar    1  UNL1        0.1314
     33 C         138.4316  139.1517  164.1167 C.ar    1  UNL1        0.1783
     34 F         137.9742  138.6149  162.7928 F       1  UNL1       -0.2009
     35 C         138.8362  140.5904  164.2433 C.ar    1  UNL1        0.1314
     36 N         139.2936  141.1272  165.5672 N.ar    1  UNL1       -0.2268
@<TRIPOS>BOND
     1    12    13    1
     2    13    14   ar
     3    14    15   ar
     4    15    16   ar
     5    16    17    1
     6    16    18   ar
     7    18    11    1
     8    11    10    1
     9    10     4    1
    10     4     5    1
    11     5     6    1
    12     6     7    1
    13     7     1    1
    14     1     2    2
    15     1     3    2
    16     1    19    1
    17    19    20    1
    18    20    21    1
    19    20    27    1
    20    27    28    1
    21    28    29    1
    22    28    30    1
    23    30    31   ar
    24    31    32   ar
    25    32    33   ar
    26    33    34    1
    27    33    35   ar
    28    35    36   ar
    29    20    22    1
    30    22    23    1
    31    22    24   am
    32    24    25    2
    33     7     8    1
    34     8     9    1
    35    18    13   ar
    36     9     4    1
    37    36    30   ar
    38    23    26    1
@<TRIPOS>MOLECULE
*****
 36 38 0 0 0
SMALL
GASTEIGER

@<TRIPOS>ATOM
      1 S         142.7215  139.9607  165.5428 S.O2    1  UNL1        0.0455
      2 O         142.0816  138.7119  166.0729 O.2     1  UNL1       -0.1572
      3 O         143.3615  141.2094  165.0128 O.2     1  UNL1       -0.1572
      4 C         142.9350  138.1121  161.4456 C.3     1  UNL1        0.0032
      5 C         143.9812  139.0951  161.8803 C.3     1  UNL1        0.0192
      6 C         143.9101  139.7113  163.2460 C.3     1  UNL1        0.0954
      7 N         142.7927  139.3444  164.1770 N.3     1  UNL1       -0.1594
      8 C         141.7464  138.3614  163.7424 C.3     1  UNL1        0.0954
      9 C         141.8176  137.7452  162.3767 C.3     1  UNL1        0.0192
     10 C         143.0061  137.4958  160.0799 C.3     1  UNL1        0.0049
     11 C         142.6866  138.3196  158.8678 C.3     1  UNL1        0.0305
     12 C         139.5326  139.1355  159.0570 C.3     1  UNL1        0.0553
     13 C         140.1546  138.2557  158.0135 C.ar    1  UNL1        0.0966
     14 N         139.4361  137.5964  156.8737 N.ar    1  UNL1       -0.0821
     15 O         140.4418  136.8138  156.0823 O.2     1  UNL1       -0.3584
     16 C         141.7819  136.9895  156.7330 C.ar    1  UNL1        0.1504
     17 C         143.0728  136.3810  156.2712 C.3     1  UNL1        0.0750
     18 C         141.6043  137.8806  157.9265 C.ar    1  UNL1        0.0274
     19 C         142.6504  140.5768  166.9085 C.3     1  UNL1        0.1895
     20 C         141.5132  140.2377  167.8260 C.3     1  UNL1        0.1104
     21 C         142.4611  139.5087  168.7315 C.3     1  UNL1        0.0243
     22 N         140.3760  139.8987  168.7435 N.am    1  UNL1       -0.1662
     23 O         139.0326  139.5488  168.1753 O.3     1  UNL1       -0.2915
     24 C         140.5822  139.9094  170.2293 C.2     1  UNL1        0.3267
     25 O         139.4450  139.5703  171.1468 O.2     1  UNL1       -0.2627
     26 H         139.0707  139.5890  167.2069 H       1  UNL1        0.2417
     27 C         140.5653  140.9668  166.9206 C.3     1  UNL1        0.0300
     28 C         140.4092  142.4540  167.0389 C.3     1  UNL1        0.0603
     29 C         140.4940  143.1123  168.3841 C.3     1  UNL1        0.0080
     30 C         140.1684  143.2828  165.8122 C.ar    1  UNL1        0.1390
     31 N         141.3269  143.7370  164.9745 N.ar    1  UNL1       -0.2268
     32 C         141.0861  144.5659  163.7477 C.ar    1  UNL1        0.1314
     33 C         139.6867  144.9406  163.3586 C.ar    1  UNL1        0.1783
     34 F         139.4458  145.7694  162.1318 F       1  UNL1       -0.2009
     35 C         138.5282  144.4864  164.1962 C.ar    1  UNL1        0.1314
     36 N         138.7691  143.6576  165.4230 N.ar    1  UNL1       -0.2268
@<TRIPOS>BOND
     1    12    13    1
     2    13    14   ar
     3    14    15   ar
     4    15    16   ar
     5    16    17    1
     6    16    18   ar
     7    18    11    1
     8    11    10    1
     9    10     4    1
    10     4     5    1
    11     5     6    1
    12     6     7    1
    13     7     1    1
    14     1     2    2
    15     1     3    2
    16     1    19    1
    17    19    20    1
    18    20    21    1
    19    20    27    1
    20    27    28    1
    21    28    29    1
    22    28    30    1
    23    30    31   ar
    24    31    32   ar
    25    32    33   ar
    26    33    34    1
    27    33    35   ar
    28    35    36   ar
    29    20    22    1
    30    22    23    1
    31    22    24   am
    32    24    25    2
    33     7     8    1
    34     8     9    1
    35    18    13   ar
    36     9     4    1
    37    36    30   ar
    38    23    26    1
@<TRIPOS>MOLECULE
*****
 36 38 0 0 0
SMALL
GASTEIGER

@<TRIPOS>ATOM
      1 S         140.2562  141.1774  162.7562 S.O2    1  UNL1        0.0455
      2 O         138.9609  140.4989  162.4218 O.2     1  UNL1       -0.1572
      3 O         141.5515  141.8559  163.0905 O.2     1  UNL1       -0.1572
      4 C         139.6021  140.2771  167.1164 C.3     1  UNL1        0.0032
      5 C         139.2917  139.2371  166.0811 C.3     1  UNL1        0.0192
      6 C         139.5097  139.5372  164.6277 C.3     1  UNL1        0.0954
      7 N         140.0382  140.8773  164.2096 N.3     1  UNL1       -0.1594
      8 C         140.3486  141.9174  165.2450 C.3     1  UNL1        0.0954
      9 C         140.1306  141.6173  166.6983 C.3     1  UNL1        0.0192
     10 C         139.3841  139.9771  168.5699 C.3     1  UNL1        0.0049
     11 C         139.6663  141.0272  169.6030 C.3     1  UNL1        0.0305
     12 C         140.5268  144.1612  169.8981 C.3     1  UNL1        0.0553
     13 C         141.4580  142.9855  169.9198 C.ar    1  UNL1        0.0966
     14 N         142.9481  143.0439  170.0810 N.ar    1  UNL1       -0.0821
     15 O         143.4737  141.6394  170.0451 O.2     1  UNL1       -0.3584
     16 C         142.3082  140.7129  169.8616 C.ar    1  UNL1        0.1504
     17 C         142.3766  139.2172  169.7714 C.3     1  UNL1        0.0750
     18 C         141.0625  141.5450  169.7842 C.ar    1  UNL1        0.0274
     19 C         140.4742  141.4774  161.3028 C.3     1  UNL1        0.1895
     20 C         141.1218  142.7666  160.8920 C.3     1  UNL1        0.1104
     21 C         140.2653  143.5097  161.8738 C.3     1  UNL1        0.0243
     22 N         141.7695  144.0557  160.4812 N.am    1  UNL1       -0.1662
     23 O         142.6721  144.7792  161.4360 O.3     1  UNL1       -0.2915
     24 C         141.5144  144.6213  159.1154 C.2     1  UNL1        0.3267
     25 O         142.1621  145.9104  158.7046 O.2     1  UNL1       -0.2627
     26 H         142.7284  144.2823  162.2672 H       1  UNL1        0.2417
     27 C         141.9783  142.0234  159.9101 C.3     1  UNL1        0.0300
     28 C         143.4540  141.8966  160.1475 C.3     1  UNL1        0.0603
     29 C         144.4246  142.4919  159.1709 C.3     1  UNL1        0.0080
     30 C         143.9591  141.1747  161.3614 C.ar    1  UNL1        0.1390
     31 N         143.5670  139.7469  161.6021 N.ar    1  UNL1       -0.2268
     32 C         144.0721  139.0249  162.8161 C.ar    1  UNL1        0.1314
     33 C         144.9693  139.7307  163.7892 C.ar    1  UNL1        0.1783
     34 F         145.4744  139.0087  165.0032 F       1  UNL1       -0.2009
     35 C         145.3613  141.1583  163.5485 C.ar    1  UNL1        0.1314
     36 N         144.8562  141.8803  162.3346 N.ar    1  UNL1       -0.2268
@<TRIPOS>BOND
     1    12    13    1
     2    13    14   ar
     3    14    15   ar
     4    15    16   ar
     5    16    17    1
     6    16    18   ar
     7    18    11    1
     8    11    10    1
     9    10     4    1
    10     4     5    1
    11     5     6    1
    12     6     7    1
    13     7     1    1
    14     1     2    2
    15     1     3    2
    16     1    19    1
    17    19    20    1
    18    20    21    1
    19    20    27    1
    20    27    28    1
    21    28    29    1
    22    28    30    1
    23    30    31   ar
    24    31    32   ar
    25    32    33   ar
    26    33    34    1
    27    33    35   ar
    28    35    36   ar
    29    20    22    1
    30    22    23    1
    31    22    24   am
    32    24    25    2
    33     7     8    1
    34     8     9    1
    35    18    13   ar
    36     9     4    1
    37    36    30   ar
    38    23    26    1
@<TRIPOS>MOLECULE
*****
 36 38 0 0 0
SMALL
GASTEIGER

@<TRIPOS>ATOM
      1 S         142.9910  140.2458  166.2861 S.O2    1  UNL1        0.0455
      2 O         142.4327  138.8775  166.5426 O.2     1  UNL1       -0.1572
      3 O         143.5492  141.6142  166.0297 O.2     1  UNL1       -0.1572
      4 C         143.8437  139.0983  162.0193 C.3     1  UNL1        0.0032
      5 C         144.5661  140.2552  162.6434 C.3     1  UNL1        0.0192
      6 C         144.2818  140.6377  164.0657 C.3     1  UNL1        0.0954
      7 N         143.2752  139.8633  164.8638 N.3     1  UNL1       -0.1594
      8 C         142.5529  138.7063  164.2396 C.3     1  UNL1        0.0954
      9 C         142.8371  138.3238  162.8174 C.3     1  UNL1        0.0192
     10 C         144.1280  138.7157  160.5970 C.3     1  UNL1        0.0049
     11 C         143.2044  139.1602  159.5019 C.3     1  UNL1        0.0305
     12 C         143.8614  142.3566  159.4843 C.3     1  UNL1        0.0553
     13 C         142.5222  141.7333  159.7446 C.ar    1  UNL1        0.0966
     14 N         141.2498  142.4697  160.0425 N.ar    1  UNL1       -0.0821
     15 O         140.1614  141.4556  160.2347 O.2     1  UNL1       -0.3584
     16 C         140.7611  140.0924  160.0556 C.ar    1  UNL1        0.1504
     17 C         140.0301  138.7868  160.1609 C.3     1  UNL1        0.0750
     18 C         142.2202  140.2641  159.7527 C.ar    1  UNL1        0.0274
     19 C         142.7067  140.6283  167.7084 C.3     1  UNL1        0.1895
     20 C         141.3952  140.2601  168.3363 C.3     1  UNL1        0.1104
     21 C         142.1223  139.5371  169.4311 C.3     1  UNL1        0.0243
     22 N         140.0837  139.8919  168.9642 N.am    1  UNL1       -0.1662
     23 O         138.9332  139.4640  168.1020 O.3     1  UNL1       -0.2915
     24 C         139.9226  139.9516  170.4544 C.2     1  UNL1        0.3267
     25 O         138.6110  139.5833  171.0823 O.2     1  UNL1       -0.2627
     26 H         139.2036  139.4804  167.1706 H       1  UNL1        0.2417
     27 C         140.6681  140.9831  167.2415 C.3     1  UNL1        0.0300
     28 C         140.4494  142.4640  167.3371 C.3     1  UNL1        0.0603
     29 C         140.5001  143.1450  168.6727 C.3     1  UNL1        0.0080
     30 C         140.1802  143.2639  166.0971 C.ar    1  UNL1        0.1390
     31 N         138.9447  144.1096  166.0036 N.ar    1  UNL1       -0.2268
     32 C         138.6755  144.9095  164.7636 C.ar    1  UNL1        0.1314
     33 C         139.6416  144.8638  163.6171 C.ar    1  UNL1        0.1783
     34 F         139.3724  145.6638  162.3771 F       1  UNL1       -0.2009
     35 C         140.8770  144.0183  163.7106 C.ar    1  UNL1        0.1314
     36 N         141.1463  143.2183  164.9506 N.ar    1  UNL1       -0.2268
@<TRIPOS>BOND
     1    12    13    1
     2    13    14   ar
     3    14    15   ar
     4    15    16   ar
     5    16    17    1
     6    16    18   ar
     7    18    11    1
     8    11    10    1
     9    10     4    1
    10     4     5    1
    11     5     6    1
    12     6     7    1
    13     7     1    1
    14     1     2    2
    15     1     3    2
    16     1    19    1
    17    19    20    1
    18    20    21    1
    19    20    27    1
    20    27    28    1
    21    28    29    1
    22    28    30    1
    23    30    31   ar
    24    31    32   ar
    25    32    33   ar
    26    33    34    1
    27    33    35   ar
    28    35    36   ar
    29    20    22    1
    30    22    23    1
    31    22    24   am
    32    24    25    2
    33     7     8    1
    34     8     9    1
    35    18    13   ar
    36     9     4    1
    37    36    30   ar
    38    23    26    1
@<TRIPOS>MOLECULE
*****
 36 38 0 0 0
SMALL
GASTEIGER

@<TRIPOS>ATOM
      1 S         142.1672  138.1554  160.8805 S.O2    1  UNL1        0.0455
      2 O         143.3849  138.0729  161.7524 O.2     1  UNL1       -0.1572
      3 O         140.9494  138.2378  160.0086 O.2     1  UNL1       -0.1572
      4 C         139.5406  137.6972  164.5056 C.3     1  UNL1        0.0032
      5 C         138.9273  137.7603  163.1383 C.3     1  UNL1        0.0192
      6 C         139.8028  137.9130  161.9299 C.3     1  UNL1        0.0954
      7 N         141.2916  138.0026  162.0890 N.3     1  UNL1       -0.1594
      8 C         141.9050  137.9395  163.4563 C.3     1  UNL1        0.0954
      9 C         141.0295  137.7868  164.6647 C.3     1  UNL1        0.0192
     10 C         138.6651  137.5445  165.7141 C.3     1  UNL1        0.0049
     11 C         138.0357  138.7527  166.3417 C.3     1  UNL1        0.0305
     12 C         137.7816  140.9647  163.9559 C.3     1  UNL1        0.0553
     13 C         138.6211  141.0939  165.1922 C.ar    1  UNL1        0.0966
     14 N         139.4912  142.2625  165.5490 N.ar    1  UNL1       -0.0821
     15 O         140.1458  141.9680  166.8661 O.2     1  UNL1       -0.3584
     16 C         139.6802  140.6173  167.3234 C.ar    1  UNL1        0.1504
     17 C         140.0858  139.9280  168.5924 C.3     1  UNL1        0.0750
     18 C         138.7379  140.0772  166.2888 C.ar    1  UNL1        0.0274
     19 C         143.0427  138.3080  159.6722 C.3     1  UNL1        0.1895
     20 C         142.5452  139.0647  158.4764 C.3     1  UNL1        0.1104
     21 C         142.6075  137.8101  157.6566 C.3     1  UNL1        0.0243
     22 N         142.0478  139.8214  157.2806 N.am    1  UNL1       -0.1662
     23 O         140.9749  140.8573  157.4415 O.3     1  UNL1       -0.2915
     24 C         142.6233  139.5422  155.9237 C.2     1  UNL1        0.3267
     25 O         142.1259  140.2989  154.7279 O.2     1  UNL1       -0.2627
     26 H         140.7162  140.9125  158.3747 H       1  UNL1        0.2417
     27 C         142.4830  140.3194  159.2962 C.3     1  UNL1        0.0300
     28 C         143.7190  141.1444  159.4997 C.3     1  UNL1        0.0603
     29 C         144.6257  141.4356  158.3407 C.3     1  UNL1        0.0080
     30 C         144.0485  141.6781  160.8623 C.ar    1  UNL1        0.1390
     31 N         144.9482  140.8993  161.7755 N.ar    1  UNL1       -0.2268
     32 C         145.2777  141.4331  163.1381 C.ar    1  UNL1        0.1314
     33 C         144.7074  142.7457  163.5874 C.ar    1  UNL1        0.1783
     34 F         145.0369  143.2795  164.9499 F       1  UNL1       -0.2009
     35 C         143.8078  143.5245  162.6741 C.ar    1  UNL1        0.1314
     36 N         143.4783  142.9907  161.3116 N.ar    1  UNL1       -0.2268
@<TRIPOS>BOND
     1    12    13    1
     2    13    14   ar
     3    14    15   ar
     4    15    16   ar
     5    16    17    1
     6    16    18   ar
     7    18    11    1
     8    11    10    1
     9    10     4    1
    10     4     5    1
    11     5     6    1
    12     6     7    1
    13     7     1    1
    14     1     2    2
    15     1     3    2
    16     1    19    1
    17    19    20    1
    18    20    21    1
    19    20    27    1
    20    27    28    1
    21    28    29    1
    22    28    30    1
    23    30    31   ar
    24    31    32   ar
    25    32    33   ar
    26    33    34    1
    27    33    35   ar
    28    35    36   ar
    29    20    22    1
    30    22    23    1
    31    22    24   am
    32    24    25    2
    33     7     8    1
    34     8     9    1
    35    18    13   ar
    36     9     4    1
    37    36    30   ar
    38    23    26    1
@<TRIPOS>MOLECULE
*****
 36 38 0 0 0
SMALL
GASTEIGER

@<TRIPOS>ATOM
      1 S         140.2684  138.9486  161.0976 S.O2    1  UNL1        0.0455
      2 O         139.5431  137.6414  161.2203 O.2     1  UNL1       -0.1572
      3 O         140.9937  140.2558  160.9749 O.2     1  UNL1       -0.1572
      4 C         141.7714  137.7331  157.0339 C.3     1  UNL1        0.0032
      5 C         142.7367  137.9118  158.1680 C.3     1  UNL1        0.0192
      6 C         142.2357  138.3169  159.5225 C.3     1  UNL1        0.0954
      7 N         140.7694  138.5434  159.7430 N.3     1  UNL1       -0.1594
      8 C         139.8040  138.3648  158.6089 C.3     1  UNL1        0.0954
      9 C         140.3050  137.9596  157.2544 C.3     1  UNL1        0.0192
     10 C         142.2723  137.3279  155.6793 C.3     1  UNL1        0.0049
     11 C         143.1726  136.1365  155.5381 C.3     1  UNL1        0.0305
     12 C         141.1475  134.6844  153.4311 C.3     1  UNL1        0.0553
     13 C         141.6793  134.0845  154.6988 C.ar    1  UNL1        0.0966
     14 N         141.3737  132.7118  155.2206 N.ar    1  UNL1       -0.0821
     15 O         142.1157  132.5308  156.5117 O.2     1  UNL1       -0.3584
     16 C         142.8799  133.7918  156.7877 C.ar    1  UNL1        0.1504
     17 C         143.7594  134.0476  157.9756 C.3     1  UNL1        0.0750
     18 C         142.6102  134.7519  155.6673 C.ar    1  UNL1        0.0274
     19 C         139.7674  139.3537  162.4522 C.3     1  UNL1        0.1895
     20 C         138.8582  140.5385  162.5921 C.3     1  UNL1        0.1104
     21 C         137.9153  139.9327  161.5951 C.3     1  UNL1        0.0243
     22 N         137.9489  141.7233  162.7320 N.am    1  UNL1       -0.1662
     23 O         136.5159  141.5262  163.1288 O.3     1  UNL1       -0.2915
     24 C         138.4728  143.1052  162.4751 C.2     1  UNL1        0.3267
     25 O         137.5636  144.2900  162.6150 O.2     1  UNL1       -0.2627
     26 H         136.3426  140.5802  163.2555 H       1  UNL1        0.2417
     27 C         139.8010  141.1443  163.5891 C.3     1  UNL1        0.0300
     28 C         139.6915  140.7828  165.0407 C.3     1  UNL1        0.0603
     29 C         138.5273  139.9707  165.5256 C.3     1  UNL1        0.0080
     30 C         140.7462  141.2334  166.0074 C.ar    1  UNL1        0.1390
     31 N         140.4375  141.3071  167.4735 N.ar    1  UNL1       -0.2268
     32 C         141.4922  141.7577  168.4403 C.ar    1  UNL1        0.1314
     33 C         142.8556  142.1346  167.9409 C.ar    1  UNL1        0.1783
     34 F         143.9103  142.5852  168.9077 F       1  UNL1       -0.2009
     35 C         143.1642  142.0609  166.4749 C.ar    1  UNL1        0.1314
     36 N         142.1095  141.6103  165.5082 N.ar    1  UNL1       -0.2268
@<TRIPOS>BOND
     1    12    13    1
     2    13    14   ar
     3    14    15   ar
     4    15    16   ar
     5    16    17    1
     6    16    18   ar
     7    18    11    1
     8    11    10    1
     9    10     4    1
    10     4     5    1
    11     5     6    1
    12     6     7    1
    13     7     1    1
    14     1     2    2
    15     1     3    2
    16     1    19    1
    17    19    20    1
    18    20    21    1
    19    20    27    1
    20    27    28    1
    21    28    29    1
    22    28    30    1
    23    30    31   ar
    24    31    32   ar
    25    32    33   ar
    26    33    34    1
    27    33    35   ar
    28    35    36   ar
    29    20    22    1
    30    22    23    1
    31    22    24   am
    32    24    25    2
    33     7     8    1
    34     8     9    1
    35    18    13   ar
    36     9     4    1
    37    36    30   ar
    38    23    26    1
