@<TRIPOS>MOLECULE
*****
 40 43 0 0 0
SMALL
GASTEIGER

@<TRIPOS>ATOM
      1 C         140.6622  142.1526  159.8879 C.3     1  UNL1        0.1678
      2 C         141.3944  141.0024  160.5132 C.2     1  UNL1        0.2492
      3 O         141.4266  141.2273  161.2772 O.2     1  UNL1       -0.2727
      4 N         141.9210  139.7610  159.8564 N.am    1  UNL1       -0.2517
      5 C         141.8457  139.3631  158.4120 C.ar    1  UNL1        0.0679
      6 C         142.5012  138.0350  158.1746 C.ar    1  UNL1        0.0169
      7 C         142.5360  137.4522  156.7929 C.ar    1  UNL1        0.0116
      8 C         141.9153  138.1975  155.6487 C.ar    1  UNL1        0.0698
      9 C         141.2598  139.5256  155.8861 C.ar    1  UNL1        0.0264
     10 C         141.2250  140.1084  157.2678 C.ar    1  UNL1        0.0682
     11 N         140.5264  141.4357  157.2854 N.am    1  UNL1       -0.2570
     12 C         140.0099  141.9168  155.9618 C.2     1  UNL1        0.2299
     13 C         140.2078  141.0822  154.7311 C.3     1  UNL1        0.0952
     14 O         139.2955  143.2325  155.8688 O.2     1  UNL1       -0.2745
     15 C         140.2759  142.3455  158.4513 C.3     1  UNL1        0.1066
     16 C         139.5421  143.6160  158.1396 C.3     1  UNL1        0.0242
     17 C         141.2105  144.3867  161.0953 C.2     1  UNL1        0.2371
     18 O         142.5562  144.4144  160.4329 O.2     1  UNL1       -0.2737
     19 N         140.2636  143.2559  160.8227 N.am    1  UNL1       -0.2959
     20 H         139.3805  143.2377  161.2574 H       1  UNL1        0.1499
     21 C         140.8120  145.4900  162.0301 C.3     1  UNL1        0.1316
     22 C         139.6053  146.3288  161.7291 C.3     1  UNL1        0.0270
     23 C         142.3017  144.6209  163.9731 C.3     1  UNL1        0.0862
     24 N         141.6200  145.7545  163.2659 N.3     1  UNL1       -0.2902
     25 H         142.3483  146.4192  163.0048 H       1  UNL1        0.1237
     26 C         141.9502  137.6147  154.2669 C.1     1  UNL1        0.1005
     27 N         141.9851  137.0319  152.8852 N.1     1  UNL1       -0.1908
     28 C         142.6149  138.7888  160.7639 C.3     1  UNL1        0.1278
     29 C         141.9891  138.4064  162.0724 C.ar    1  UNL1        0.0320
     30 C         140.5882  137.8713  162.1058 C.ar    1  UNL1        0.1363
     31 C         139.9624  137.4889  163.4142 C.ar    1  UNL1        0.0366
     32 C         140.7375  137.6416  164.6893 C.ar    1  UNL1        0.0031
     33 C         142.1383  138.1768  164.6559 C.ar    1  UNL1       -0.0001
     34 C         142.9134  138.3296  165.9311 C.ar    1  UNL1       -0.0000
     35 C         144.3144  138.8647  165.8977 C.ar    1  UNL1       -0.0000
     36 C         144.9401  139.2471  164.5892 C.ar    1  UNL1       -0.0000
     37 C         144.1651  139.0944  163.3141 C.ar    1  UNL1       -0.0002
     38 C         142.7642  138.5592  163.3475 C.ar    1  UNL1        0.0006
     39 O         139.8131  137.7185  160.8307 O.3     1  UNL1       -0.4717
     40 C         138.6293  138.5998  160.5623 C.3     1  UNL1        0.2525
@<TRIPOS>BOND
     1    23    24    1
     2    24    21    1
     3    21    22    1
     4    21    17    1
     5    17    18    2
     6    17    19   am
     7     1    19    1
     8     1     2    1
     9     2     3    2
    10     2     4   am
    11     4    28    1
    12    28    29    1
    13    29    30   ar
    14    30    39    1
    15    39    40    1
    16    30    31   ar
    17    31    32   ar
    18    32    33   ar
    19    33    34   ar
    20    34    35   ar
    21    35    36   ar
    22    36    37   ar
    23    37    38   ar
    24     4     5    1
    25     5     6   ar
    26     6     7   ar
    27     7     8   ar
    28     8    26    1
    29    26    27    3
    30     8     9   ar
    31     9    10   ar
    32    10    11    1
    33    11    12   am
    34    12    13    1
    35    12    14    2
    36    11    15    1
    37    15    16    1
    38    15     1    1
    39    38    29   ar
    40    10     5   ar
    41    38    33   ar
    42    24    25    1
    43    19    20    1
@<TRIPOS>MOLECULE
*****
 40 43 0 0 0
SMALL
GASTEIGER

@<TRIPOS>ATOM
      1 C         141.5220  142.4416  160.2654 C.3     1  UNL1        0.1678
      2 C         142.2794  141.3779  161.0036 C.2     1  UNL1        0.2492
      3 O         142.4395  141.7428  161.6939 O.2     1  UNL1       -0.2727
      4 N         142.6338  139.9940  160.5461 N.am    1  UNL1       -0.2517
      5 C         142.3184  139.3320  159.2376 C.ar    1  UNL1        0.0679
      6 C         142.8593  137.9339  159.1863 C.ar    1  UNL1        0.0169
      7 C         142.6524  137.0942  157.9607 C.ar    1  UNL1        0.0116
      8 C         141.9046  137.6526  156.7864 C.ar    1  UNL1        0.0698
      9 C         141.3637  139.0507  156.8377 C.ar    1  UNL1        0.0264
     10 C         141.5706  139.8904  158.0633 C.ar    1  UNL1        0.0682
     11 N         140.9536  141.2487  157.9075 N.am    1  UNL1       -0.2570
     12 C         140.2674  141.5056  156.5986 C.2     1  UNL1        0.2299
     13 C         140.2313  140.4356  155.5479 C.3     1  UNL1        0.0952
     14 O         139.6174  142.8326  156.3403 O.2     1  UNL1       -0.2745
     15 C         140.9319  142.3841  158.8875 C.3     1  UNL1        0.1066
     16 C         140.2270  143.6262  158.4290 C.3     1  UNL1        0.0242
     17 C         140.1175  143.9318  161.8643 C.2     1  UNL1        0.2371
     18 O         139.0987  142.8379  161.9889 O.2     1  UNL1       -0.2737
     19 N         141.3291  143.7336  161.0026 N.am    1  UNL1       -0.2959
     20 H         141.9978  144.4516  160.9208 H       1  UNL1        0.1499
     21 C         139.9247  145.2238  162.6016 C.3     1  UNL1        0.1316
     22 C         139.6390  146.4853  161.8419 C.3     1  UNL1        0.0270
     23 C         138.8587  144.7921  164.9312 C.3     1  UNL1        0.0862
     24 N         140.0175  145.2543  164.0983 N.3     1  UNL1       -0.2902
     25 H         140.8154  144.6735  164.3558 H       1  UNL1        0.1237
     26 C         141.6977  136.8128  155.5608 C.1     1  UNL1        0.1005
     27 N         141.4908  135.9731  154.3352 N.1     1  UNL1       -0.1908
     28 C         143.4058  139.1621  161.5269 C.3     1  UNL1        0.1278
     29 C         142.9767  139.1048  162.9631 C.ar    1  UNL1        0.0320
     30 C         143.9174  139.5455  164.0451 C.ar    1  UNL1        0.1363
     31 C         143.4884  139.4882  165.4812 C.ar    1  UNL1        0.0366
     32 C         142.1185  138.9903  165.8354 C.ar    1  UNL1        0.0031
     33 C         141.1778  138.5496  164.7535 C.ar    1  UNL1       -0.0001
     34 C         139.8078  138.0517  165.1076 C.ar    1  UNL1       -0.0000
     35 C         138.8670  137.6110  164.0257 C.ar    1  UNL1       -0.0000
     36 C         139.2961  137.6683  162.5895 C.ar    1  UNL1       -0.0000
     37 C         140.6660  138.1662  162.2353 C.ar    1  UNL1       -0.0002
     38 C         141.6068  138.6069  163.3173 C.ar    1  UNL1        0.0006
     39 O         145.2873  140.0434  163.6909 O.3     1  UNL1       -0.4717
     40 C         145.6023  141.5067  163.7895 C.3     1  UNL1        0.2525
@<TRIPOS>BOND
     1    23    24    1
     2    24    21    1
     3    21    22    1
     4    21    17    1
     5    17    18    2
     6    17    19   am
     7     1    19    1
     8     1     2    1
     9     2     3    2
    10     2     4   am
    11     4    28    1
    12    28    29    1
    13    29    30   ar
    14    30    39    1
    15    39    40    1
    16    30    31   ar
    17    31    32   ar
    18    32    33   ar
    19    33    34   ar
    20    34    35   ar
    21    35    36   ar
    22    36    37   ar
    23    37    38   ar
    24     4     5    1
    25     5     6   ar
    26     6     7   ar
    27     7     8   ar
    28     8    26    1
    29    26    27    3
    30     8     9   ar
    31     9    10   ar
    32    10    11    1
    33    11    12   am
    34    12    13    1
    35    12    14    2
    36    11    15    1
    37    15    16    1
    38    15     1    1
    39    38    29   ar
    40    10     5   ar
    41    38    33   ar
    42    24    25    1
    43    19    20    1
@<TRIPOS>MOLECULE
*****
 40 43 0 0 0
SMALL
GASTEIGER

@<TRIPOS>ATOM
      1 C         142.6451  138.8175  159.0879 C.3     1  UNL1        0.1678
      2 C         142.0272  138.4802  160.4125 C.2     1  UNL1        0.2492
      3 O         142.1845  137.7009  160.4707 O.2     1  UNL1       -0.2727
      4 N         141.3054  139.3861  161.3655 N.am    1  UNL1       -0.2517
      5 C         141.0232  140.8531  161.2295 C.ar    1  UNL1        0.0679
      6 C         140.2702  141.3786  162.4155 C.ar    1  UNL1        0.0169
      7 C         139.8872  142.8275  162.4788 C.ar    1  UNL1        0.0116
      8 C         140.2571  143.7508  161.3560 C.ar    1  UNL1        0.0698
      9 C         141.0101  143.2252  160.1700 C.ar    1  UNL1        0.0264
     10 C         141.3932  141.7764  160.1067 C.ar    1  UNL1        0.0682
     11 N         142.1366  141.4608  158.8427 N.am    1  UNL1       -0.2570
     12 C         142.3514  142.6146  157.9086 C.2     1  UNL1        0.2299
     13 C         141.8336  143.9761  158.2669 C.3     1  UNL1        0.0952
     14 O         143.0838  142.4070  156.6161 O.2     1  UNL1       -0.2745
     15 C         142.6938  140.1440  158.3893 C.3     1  UNL1        0.1066
     16 C         143.3920  140.1551  157.0617 C.3     1  UNL1        0.0242
     17 C         142.5346  136.9010  157.3373 C.2     1  UNL1        0.2371
     18 O         141.1122  137.2644  157.0292 O.2     1  UNL1       -0.2737
     19 N         143.3010  137.6775  158.3666 N.am    1  UNL1       -0.2959
     20 H         144.2345  137.4390  158.5688 H       1  UNL1        0.1499
     21 C         143.1905  135.7610  156.6160 C.3     1  UNL1        0.1316
     22 C         144.0870  136.0315  155.4441 C.3     1  UNL1        0.0270
     23 C         144.0688  133.5553  157.6711 C.3     1  UNL1        0.0862
     24 N         142.9499  134.3507  157.0665 N.3     1  UNL1       -0.2902
     25 H         142.2049  134.3868  157.7622 H       1  UNL1        0.1237
     26 C         139.8741  145.1997  161.4193 C.1     1  UNL1        0.1005
     27 N         139.4909  146.6486  161.4826 N.1     1  UNL1       -0.1908
     28 C         140.7988  138.7397  162.6207 C.3     1  UNL1        0.1278
     29 C         141.3861  139.1169  163.9484 C.ar    1  UNL1        0.0320
     30 C         142.8618  139.3538  164.0757 C.ar    1  UNL1        0.1363
     31 C         143.4491  139.7311  165.4033 C.ar    1  UNL1        0.0366
     32 C         142.5607  139.8715  166.6037 C.ar    1  UNL1        0.0031
     33 C         141.0851  139.6346  166.4765 C.ar    1  UNL1       -0.0001
     34 C         140.1966  139.7751  167.6769 C.ar    1  UNL1       -0.0000
     35 C         138.7209  139.5382  167.5497 C.ar    1  UNL1       -0.0000
     36 C         138.1336  139.1609  166.2220 C.ar    1  UNL1       -0.0000
     37 C         139.0220  139.0205  165.0216 C.ar    1  UNL1       -0.0002
     38 C         140.4977  139.2574  165.1488 C.ar    1  UNL1        0.0006
     39 O         143.7502  139.2134  162.8752 O.3     1  UNL1       -0.4717
     40 C         144.5760  140.3772  162.4130 C.3     1  UNL1        0.2525
@<TRIPOS>BOND
     1    23    24    1
     2    24    21    1
     3    21    22    1
     4    21    17    1
     5    17    18    2
     6    17    19   am
     7     1    19    1
     8     1     2    1
     9     2     3    2
    10     2     4   am
    11     4    28    1
    12    28    29    1
    13    29    30   ar
    14    30    39    1
    15    39    40    1
    16    30    31   ar
    17    31    32   ar
    18    32    33   ar
    19    33    34   ar
    20    34    35   ar
    21    35    36   ar
    22    36    37   ar
    23    37    38   ar
    24     4     5    1
    25     5     6   ar
    26     6     7   ar
    27     7     8   ar
    28     8    26    1
    29    26    27    3
    30     8     9   ar
    31     9    10   ar
    32    10    11    1
    33    11    12   am
    34    12    13    1
    35    12    14    2
    36    11    15    1
    37    15    16    1
    38    15     1    1
    39    38    29   ar
    40    10     5   ar
    41    38    33   ar
    42    24    25    1
    43    19    20    1
@<TRIPOS>MOLECULE
*****
 40 43 0 0 0
SMALL
GASTEIGER

@<TRIPOS>ATOM
      1 C         141.5072  139.4211  160.5421 C.3     1  UNL1        0.1678
      2 C         140.4483  140.4805  160.6214 C.2     1  UNL1        0.2492
      3 O         140.5721  140.7788  161.3501 O.2     1  UNL1       -0.2727
      4 N         139.4305  140.8646  159.5886 N.am    1  UNL1       -0.2517
      5 C         139.2202  140.2842  158.2215 C.ar    1  UNL1        0.0679
      6 C         138.0877  140.9603  157.5074 C.ar    1  UNL1        0.0169
      7 C         137.7107  140.5286  156.1212 C.ar    1  UNL1        0.0116
      8 C         138.4663  139.4206  155.4492 C.ar    1  UNL1        0.0698
      9 C         139.5989  138.7445  156.1634 C.ar    1  UNL1        0.0264
     10 C         139.9758  139.1762  157.5496 C.ar    1  UNL1        0.0682
     11 N         141.1283  138.3751  158.0788 N.am    1  UNL1       -0.2570
     12 C         141.6710  137.3264  157.1538 C.2     1  UNL1        0.2299
     13 C         141.0610  137.1346  155.7969 C.3     1  UNL1        0.0952
     14 O         142.8239  136.4693  157.5857 O.2     1  UNL1       -0.2745
     15 C         141.8099  138.4840  159.4105 C.3     1  UNL1        0.1066
     16 C         142.9440  137.5299  159.6412 C.3     1  UNL1        0.0242
     17 C         143.6241  140.1060  161.8836 C.2     1  UNL1        0.2371
     18 O         143.9980  141.0732  160.7997 O.2     1  UNL1       -0.2737
     19 N         142.3787  139.2799  161.7548 N.am    1  UNL1       -0.2959
     20 H         142.1333  138.6451  162.4661 H       1  UNL1        0.1499
     21 C         144.4956  139.9649  163.0962 C.3     1  UNL1        0.1316
     22 C         144.1696  138.9366  164.1386 C.3     1  UNL1        0.0270
     23 C         145.5388  142.2094  163.8859 C.3     1  UNL1        0.0862
     24 N         145.6931  140.8520  163.2666 N.3     1  UNL1       -0.2902
     25 H         146.3598  140.3391  163.8436 H       1  UNL1        0.1237
     26 C         138.0894  138.9889  154.0630 C.1     1  UNL1        0.1005
     27 N         137.7124  138.5571  152.6769 N.1     1  UNL1       -0.1908
     28 C         138.4999  141.9762  159.9739 C.3     1  UNL1        0.1278
     29 C         139.0399  143.2140  160.6268 C.ar    1  UNL1        0.0320
     30 C         139.8721  144.1779  159.8342 C.ar    1  UNL1        0.1363
     31 C         140.4120  145.4157  160.4870 C.ar    1  UNL1        0.0366
     32 C         140.1197  145.6897  161.9325 C.ar    1  UNL1        0.0031
     33 C         139.2875  144.7258  162.7251 C.ar    1  UNL1       -0.0001
     34 C         138.9952  144.9997  164.1706 C.ar    1  UNL1       -0.0000
     35 C         138.1630  144.0358  164.9634 C.ar    1  UNL1       -0.0000
     36 C         137.6231  142.7980  164.3105 C.ar    1  UNL1       -0.0000
     37 C         137.9153  142.5240  162.8649 C.ar    1  UNL1       -0.0002
     38 C         138.7476  143.4880  162.0723 C.ar    1  UNL1        0.0006
     39 O         140.1644  143.9040  158.3886 O.3     1  UNL1       -0.4717
     40 C         141.5027  143.3607  157.9839 C.3     1  UNL1        0.2525
@<TRIPOS>BOND
     1    23    24    1
     2    24    21    1
     3    21    22    1
     4    21    17    1
     5    17    18    2
     6    17    19   am
     7     1    19    1
     8     1     2    1
     9     2     3    2
    10     2     4   am
    11     4    28    1
    12    28    29    1
    13    29    30   ar
    14    30    39    1
    15    39    40    1
    16    30    31   ar
    17    31    32   ar
    18    32    33   ar
    19    33    34   ar
    20    34    35   ar
    21    35    36   ar
    22    36    37   ar
    23    37    38   ar
    24     4     5    1
    25     5     6   ar
    26     6     7   ar
    27     7     8   ar
    28     8    26    1
    29    26    27    3
    30     8     9   ar
    31     9    10   ar
    32    10    11    1
    33    11    12   am
    34    12    13    1
    35    12    14    2
    36    11    15    1
    37    15    16    1
    38    15     1    1
    39    38    29   ar
    40    10     5   ar
    41    38    33   ar
    42    24    25    1
    43    19    20    1
@<TRIPOS>MOLECULE
*****
 40 43 0 0 0
SMALL
GASTEIGER

@<TRIPOS>ATOM
      1 C         141.1577  145.0139  157.0000 C.3     1  UNL1        0.1678
      2 C         140.8136  144.3341  158.2921 C.2     1  UNL1        0.2492
      3 O         140.4449  144.9186  158.6893 O.2     1  UNL1       -0.2727
      4 N         141.0974  142.9218  158.7102 N.am    1  UNL1       -0.2517
      5 C         141.7953  141.8405  157.9397 C.ar    1  UNL1        0.0679
      6 C         141.8700  140.5666  158.7281 C.ar    1  UNL1        0.0169
      7 C         142.5313  139.3568  158.1374 C.ar    1  UNL1        0.0116
      8 C         143.1178  139.4208  156.7583 C.ar    1  UNL1        0.0698
      9 C         143.0431  140.6946  155.9699 C.ar    1  UNL1        0.0264
     10 C         142.3819  141.9045  156.5606 C.ar    1  UNL1        0.0682
     11 N         142.4153  143.0656  155.6115 N.am    1  UNL1       -0.2570
     12 C         143.0817  142.8089  154.2924 C.2     1  UNL1        0.2299
     13 C         143.6607  141.4574  153.9950 C.3     1  UNL1        0.0952
     14 O         143.1692  143.9037  153.2707 O.2     1  UNL1       -0.2745
     15 C         141.8706  144.4494  155.8070 C.3     1  UNL1        0.1066
     16 C         142.0642  145.3936  154.6577 C.3     1  UNL1        0.0242
     17 C         139.4305  146.7941  156.2270 C.2     1  UNL1        0.2371
     18 O         138.5531  145.7062  155.6822 O.2     1  UNL1       -0.2737
     19 N         140.7328  146.4480  156.8859 N.am    1  UNL1       -0.2959
     20 H         141.3086  147.1620  157.2434 H       1  UNL1        0.1499
     21 C         139.0056  148.2281  156.1128 C.3     1  UNL1        0.1316
     22 C         139.2035  148.9686  154.8233 C.3     1  UNL1        0.0270
     23 C         138.4257  150.4179  157.3850 C.3     1  UNL1        0.0862
     24 N         138.3828  148.9217  157.2880 N.3     1  UNL1       -0.2902
     25 H         137.3987  148.6539  157.3003 H       1  UNL1        0.1237
     26 C         143.7791  138.2108  156.1677 C.1     1  UNL1        0.1005
     27 N         144.4404  137.0009  155.5771 N.1     1  UNL1       -0.1908
     28 C         140.6201  142.5403  160.0801 C.3     1  UNL1        0.1278
     29 C         141.0483  143.3416  161.2738 C.ar    1  UNL1        0.0320
     30 C         142.4714  143.7986  161.3989 C.ar    1  UNL1        0.1363
     31 C         142.8997  144.5998  162.5924 C.ar    1  UNL1        0.0366
     32 C         141.9047  144.9441  163.6608 C.ar    1  UNL1        0.0031
     33 C         140.4815  144.4871  163.5357 C.ar    1  UNL1       -0.0001
     34 C         139.4865  144.8313  164.6041 C.ar    1  UNL1       -0.0000
     35 C         138.0633  144.3743  164.4790 C.ar    1  UNL1       -0.0000
     36 C         137.6352  143.5730  163.2854 C.ar    1  UNL1       -0.0000
     37 C         138.6301  143.2288  162.2170 C.ar    1  UNL1       -0.0002
     38 C         140.0533  143.6858  162.3422 C.ar    1  UNL1        0.0006
     39 O         143.4664  143.4543  160.3305 O.3     1  UNL1       -0.4717
     40 C         144.5784  142.4910  160.6234 C.3     1  UNL1        0.2525
@<TRIPOS>BOND
     1    23    24    1
     2    24    21    1
     3    21    22    1
     4    21    17    1
     5    17    18    2
     6    17    19   am
     7     1    19    1
     8     1     2    1
     9     2     3    2
    10     2     4   am
    11     4    28    1
    12    28    29    1
    13    29    30   ar
    14    30    39    1
    15    39    40    1
    16    30    31   ar
    17    31    32   ar
    18    32    33   ar
    19    33    34   ar
    20    34    35   ar
    21    35    36   ar
    22    36    37   ar
    23    37    38   ar
    24     4     5    1
    25     5     6   ar
    26     6     7   ar
    27     7     8   ar
    28     8    26    1
    29    26    27    3
    30     8     9   ar
    31     9    10   ar
    32    10    11    1
    33    11    12   am
    34    12    13    1
    35    12    14    2
    36    11    15    1
    37    15    16    1
    38    15     1    1
    39    38    29   ar
    40    10     5   ar
    41    38    33   ar
    42    24    25    1
    43    19    20    1
@<TRIPOS>MOLECULE
*****
 40 43 0 0 0
SMALL
GASTEIGER

@<TRIPOS>ATOM
      1 C         141.8355  144.5226  159.8152 C.3     1  UNL1        0.1678
      2 C         142.8855  143.5032  159.4859 C.2     1  UNL1        0.2492
      3 O         143.1040  143.7270  158.7528 O.2     1  UNL1       -0.2727
      4 N         143.3819  142.3662  160.3289 N.am    1  UNL1       -0.2517
      5 C         142.9511  141.9676  161.7094 C.ar    1  UNL1        0.0679
      6 C         143.7047  140.7640  162.1925 C.ar    1  UNL1        0.0169
      7 C         143.4245  140.2006  163.5541 C.ar    1  UNL1        0.0116
      8 C         142.3907  140.8407  164.4325 C.ar    1  UNL1        0.0698
      9 C         141.6372  142.0443  163.9494 C.ar    1  UNL1        0.0264
     10 C         141.9174  142.6078  162.5878 C.ar    1  UNL1        0.0682
     11 N         141.0592  143.8045  162.3026 N.am    1  UNL1       -0.2570
     12 C         140.1122  144.2016  163.3961 C.2     1  UNL1        0.2299
     13 C         140.0686  143.4154  164.6728 C.3     1  UNL1        0.0952
     14 O         139.2087  145.3849  163.2128 O.2     1  UNL1       -0.2745
     15 C         141.0227  144.6568  161.0688 C.3     1  UNL1        0.1066
     16 C         140.0442  145.7933  161.0915 C.3     1  UNL1        0.0242
     17 C         140.4840  145.2984  157.7364 C.2     1  UNL1        0.2371
     18 O         139.6790  144.0337  157.7878 O.2     1  UNL1       -0.2737
     19 N         141.5622  145.5428  158.7501 N.am    1  UNL1       -0.2959
     20 H         142.0906  146.3729  158.7164 H       1  UNL1        0.1499
     21 C         140.2107  146.3186  156.6713 C.3     1  UNL1        0.1316
     22 C         140.8434  146.1784  155.3184 C.3     1  UNL1        0.0270
     23 C         138.8491  148.3698  155.8415 C.3     1  UNL1        0.0862
     24 N         139.3049  147.4790  156.9590 N.3     1  UNL1       -0.2902
     25 H         138.4643  147.0961  157.3918 H       1  UNL1        0.1237
     26 C         142.1106  140.2773  165.7942 C.1     1  UNL1        0.1005
     27 N         141.8304  139.7138  167.1558 N.1     1  UNL1       -0.1908
     28 C         144.4506  141.5150  159.7095 C.3     1  UNL1        0.1278
     29 C         144.2019  140.8383  158.3941 C.ar    1  UNL1        0.0320
     30 C         143.1341  139.7912  158.2794 C.ar    1  UNL1        0.1363
     31 C         142.8854  139.1145  156.9641 C.ar    1  UNL1        0.0366
     32 C         143.7047  139.4849  155.7634 C.ar    1  UNL1        0.0031
     33 C         144.7725  140.5320  155.8781 C.ar    1  UNL1       -0.0001
     34 C         145.5918  140.9024  154.6774 C.ar    1  UNL1       -0.0000
     35 C         146.6598  141.9495  154.7921 C.ar    1  UNL1       -0.0000
     36 C         146.9083  142.6262  156.1075 C.ar    1  UNL1       -0.0000
     37 C         146.0891  142.2558  157.3082 C.ar    1  UNL1       -0.0002
     38 C         145.0212  141.2087  157.1934 C.ar    1  UNL1        0.0006
     39 O         142.3148  139.4208  159.4801 O.3     1  UNL1       -0.4717
     40 C         142.4219  138.0438  160.0654 C.3     1  UNL1        0.2525
@<TRIPOS>BOND
     1    23    24    1
     2    24    21    1
     3    21    22    1
     4    21    17    1
     5    17    18    2
     6    17    19   am
     7     1    19    1
     8     1     2    1
     9     2     3    2
    10     2     4   am
    11     4    28    1
    12    28    29    1
    13    29    30   ar
    14    30    39    1
    15    39    40    1
    16    30    31   ar
    17    31    32   ar
    18    32    33   ar
    19    33    34   ar
    20    34    35   ar
    21    35    36   ar
    22    36    37   ar
    23    37    38   ar
    24     4     5    1
    25     5     6   ar
    26     6     7   ar
    27     7     8   ar
    28     8    26    1
    29    26    27    3
    30     8     9   ar
    31     9    10   ar
    32    10    11    1
    33    11    12   am
    34    12    13    1
    35    12    14    2
    36    11    15    1
    37    15    16    1
    38    15     1    1
    39    38    29   ar
    40    10     5   ar
    41    38    33   ar
    42    24    25    1
    43    19    20    1
@<TRIPOS>MOLECULE
*****
 40 43 0 0 0
SMALL
GASTEIGER

@<TRIPOS>ATOM
      1 C         139.3925  143.6459  160.5990 C.3     1  UNL1        0.1678
      2 C         138.9887  142.2787  160.1321 C.2     1  UNL1        0.2492
      3 O         138.9495  142.3824  159.3427 O.2     1  UNL1       -0.2727
      4 N         138.7305  141.0491  160.9514 N.am    1  UNL1       -0.2517
      5 C         138.8123  140.8827  162.4399 C.ar    1  UNL1        0.0679
      6 C         138.4740  139.4814  162.8542 C.ar    1  UNL1        0.0169
      7 C         138.4960  139.1023  164.3053 C.ar    1  UNL1        0.0116
      8 C         138.8562  140.1246  165.3421 C.ar    1  UNL1        0.0698
      9 C         139.1944  141.5260  164.9279 C.ar    1  UNL1        0.0264
     10 C         139.1725  141.9051  163.4768 C.ar    1  UNL1        0.0682
     11 N         139.5399  143.3462  163.2812 N.am    1  UNL1       -0.2570
     12 C         139.8504  144.1141  164.5317 C.2     1  UNL1        0.2299
     13 C         139.7821  143.4332  165.8666 C.3     1  UNL1        0.0952
     14 O         140.2293  145.5631  164.4475 O.2     1  UNL1       -0.2745
     15 C         139.6378  144.1210  162.0005 C.3     1  UNL1        0.1066
     16 C         140.0333  145.5611  162.1397 C.3     1  UNL1        0.0242
     17 C         140.8769  144.7617  158.7821 C.2     1  UNL1        0.2371
     18 O         141.9962  143.8216  159.1191 O.2     1  UNL1       -0.2737
     19 N         139.5751  144.6738  159.5220 N.am    1  UNL1       -0.2959
     20 H         138.8406  145.2909  159.3008 H       1  UNL1        0.1499
     21 C         141.0596  145.7897  157.7051 C.3     1  UNL1        0.1316
     22 C         142.3381  145.8364  156.9219 C.3     1  UNL1        0.0270
     23 C         139.4023  146.8751  156.0242 C.3     1  UNL1        0.0862
     24 N         139.9638  146.7709  157.4113 N.3     1  UNL1       -0.2902
     25 H         139.1853  146.5361  158.0272 H       1  UNL1        0.1237
     26 C         138.8781  139.7455  166.7933 C.1     1  UNL1        0.1005
     27 N         138.9000  139.3664  168.2444 N.1     1  UNL1       -0.1908
     28 C         138.3387  139.8236  160.1802 C.3     1  UNL1        0.1278
     29 C         139.2022  139.3385  159.0536 C.ar    1  UNL1        0.0320
     30 C         138.7496  139.5106  157.6340 C.ar    1  UNL1        0.1363
     31 C         139.6130  139.0255  156.5074 C.ar    1  UNL1        0.0366
     32 C         140.9291  138.3682  156.8006 C.ar    1  UNL1        0.0031
     33 C         141.3817  138.1961  158.2202 C.ar    1  UNL1       -0.0001
     34 C         142.6977  137.5388  158.5134 C.ar    1  UNL1       -0.0000
     35 C         143.1504  137.3666  159.9331 C.ar    1  UNL1       -0.0000
     36 C         142.2869  137.8518  161.0596 C.ar    1  UNL1       -0.0000
     37 C         140.9708  138.5091  160.7665 C.ar    1  UNL1       -0.0002
     38 C         140.5183  138.6812  159.3468 C.ar    1  UNL1        0.0006
     39 O         137.4335  140.1679  157.3408 O.3     1  UNL1       -0.4717
     40 C         137.3675  141.3200  156.3824 C.3     1  UNL1        0.2525
@<TRIPOS>BOND
     1    23    24    1
     2    24    21    1
     3    21    22    1
     4    21    17    1
     5    17    18    2
     6    17    19   am
     7     1    19    1
     8     1     2    1
     9     2     3    2
    10     2     4   am
    11     4    28    1
    12    28    29    1
    13    29    30   ar
    14    30    39    1
    15    39    40    1
    16    30    31   ar
    17    31    32   ar
    18    32    33   ar
    19    33    34   ar
    20    34    35   ar
    21    35    36   ar
    22    36    37   ar
    23    37    38   ar
    24     4     5    1
    25     5     6   ar
    26     6     7   ar
    27     7     8   ar
    28     8    26    1
    29    26    27    3
    30     8     9   ar
    31     9    10   ar
    32    10    11    1
    33    11    12   am
    34    12    13    1
    35    12    14    2
    36    11    15    1
    37    15    16    1
    38    15     1    1
    39    38    29   ar
    40    10     5   ar
    41    38    33   ar
    42    24    25    1
    43    19    20    1
@<TRIPOS>MOLECULE
*****
 40 43 0 0 0
SMALL
GASTEIGER

@<TRIPOS>ATOM
      1 C         142.7690  139.0184  158.6300 C.3     1  UNL1        0.1678
      2 C         142.8005  138.7495  160.1054 C.2     1  UNL1        0.2492
      3 O         143.0769  138.0022  160.1278 O.2     1  UNL1       -0.2727
      4 N         142.4097  139.6611  161.2307 N.am    1  UNL1       -0.2517
      5 C         141.8910  141.0667  161.1586 C.ar    1  UNL1        0.0679
      6 C         141.6214  141.6221  162.5256 C.ar    1  UNL1        0.0169
      7 C         141.0956  143.0187  162.6774 C.ar    1  UNL1        0.0116
      8 C         140.8396  143.8600  161.4622 C.ar    1  UNL1        0.0698
      9 C         141.1093  143.3046  160.0952 C.ar    1  UNL1        0.0264
     10 C         141.6350  141.9080  159.9434 C.ar    1  UNL1        0.0682
     11 N         141.8344  141.5513  158.5001 N.am    1  UNL1       -0.2570
     12 C         141.4826  142.6222  157.5105 C.2     1  UNL1        0.2299
     13 C         140.9683  143.9472  157.9902 C.3     1  UNL1        0.0952
     14 O         141.6451  142.3682  156.0410 O.2     1  UNL1       -0.2745
     15 C         142.3391  140.2654  157.9155 C.3     1  UNL1        0.1066
     16 C         142.4253  140.2204  156.4187 C.3     1  UNL1        0.0242
     17 C         142.2213  137.0220  157.0602 C.2     1  UNL1        0.2371
     18 O         140.7550  137.2796  157.2443 O.2     1  UNL1       -0.2737
     19 N         143.2283  137.8914  157.7531 N.am    1  UNL1       -0.2959
     20 H         144.1906  137.7224  157.6323 H       1  UNL1        0.1499
     21 C         142.6805  135.8950  156.1833 C.3     1  UNL1        0.1316
     22 C         144.0359  135.9475  155.5428 C.3     1  UNL1        0.0270
     23 C         142.3195  133.3233  156.1065 C.3     1  UNL1        0.0862
     24 N         141.7845  134.7155  155.9470 N.3     1  UNL1       -0.2902
     25 H         141.0016  134.8061  156.5946 H       1  UNL1        0.1237
     26 C         140.3139  145.2566  161.6140 C.1     1  UNL1        0.1005
     27 N         139.7882  146.6532  161.7658 N.1     1  UNL1       -0.1908
     28 C         142.5571  139.0918  162.6106 C.3     1  UNL1        0.1278
     29 C         141.3439  138.8728  163.4651 C.ar    1  UNL1        0.0320
     30 C         140.1447  138.1715  162.8994 C.ar    1  UNL1        0.1363
     31 C         138.9315  137.9525  163.7538 C.ar    1  UNL1        0.0366
     32 C         138.9176  138.4348  165.1741 C.ar    1  UNL1        0.0031
     33 C         140.1167  139.1360  165.7399 C.ar    1  UNL1       -0.0001
     34 C         140.1028  139.6183  167.1602 C.ar    1  UNL1       -0.0000
     35 C         141.3020  140.3196  167.7260 C.ar    1  UNL1       -0.0000
     36 C         142.5151  140.5386  166.8714 C.ar    1  UNL1       -0.0000
     37 C         142.5292  140.0563  165.4512 C.ar    1  UNL1       -0.0002
     38 C         141.3299  139.3551  164.8854 C.ar    1  UNL1        0.0006
     39 O         140.1587  137.6892  161.4791 O.3     1  UNL1       -0.4717
     40 C         139.1790  138.2452  160.4885 C.3     1  UNL1        0.2525
@<TRIPOS>BOND
     1    23    24    1
     2    24    21    1
     3    21    22    1
     4    21    17    1
     5    17    18    2
     6    17    19   am
     7     1    19    1
     8     1     2    1
     9     2     3    2
    10     2     4   am
    11     4    28    1
    12    28    29    1
    13    29    30   ar
    14    30    39    1
    15    39    40    1
    16    30    31   ar
    17    31    32   ar
    18    32    33   ar
    19    33    34   ar
    20    34    35   ar
    21    35    36   ar
    22    36    37   ar
    23    37    38   ar
    24     4     5    1
    25     5     6   ar
    26     6     7   ar
    27     7     8   ar
    28     8    26    1
    29    26    27    3
    30     8     9   ar
    31     9    10   ar
    32    10    11    1
    33    11    12   am
    34    12    13    1
    35    12    14    2
    36    11    15    1
    37    15    16    1
    38    15     1    1
    39    38    29   ar
    40    10     5   ar
    41    38    33   ar
    42    24    25    1
    43    19    20    1
@<TRIPOS>MOLECULE
*****
 40 43 0 0 0
SMALL
GASTEIGER

@<TRIPOS>ATOM
      1 C         140.7300  143.4718  160.3501 C.3     1  UNL1        0.1678
      2 C         139.9946  142.2193  160.7249 C.2     1  UNL1        0.2492
      3 O         140.3053  142.0573  161.4409 O.2     1  UNL1       -0.2727
      4 N         138.9500  141.4788  159.9435 N.am    1  UNL1       -0.2517
      5 C         138.3829  141.8078  158.5944 C.ar    1  UNL1        0.0679
      6 C         137.3530  140.8020  158.1727 C.ar    1  UNL1        0.0169
      7 C         136.6605  140.9471  156.8501 C.ar    1  UNL1        0.0116
      8 C         136.9979  142.0980  155.9491 C.ar    1  UNL1        0.0698
      9 C         138.0277  143.1037  156.3708 C.ar    1  UNL1        0.0264
     10 C         138.7202  142.9586  157.6934 C.ar    1  UNL1        0.0682
     11 N         139.7080  144.0647  157.9191 N.am    1  UNL1       -0.2570
     12 C         139.8156  145.0761  156.8166 C.2     1  UNL1        0.2299
     13 C         138.9648  144.9405  155.5886 C.3     1  UNL1        0.0952
     14 O         140.7741  146.2232  156.9421 O.2     1  UNL1       -0.2745
     15 C         140.6025  144.2931  159.1014 C.3     1  UNL1        0.1066
     16 C         141.4862  145.5027  159.0249 C.3     1  UNL1        0.0242
     17 C         143.0810  143.3352  161.4473 C.2     1  UNL1        0.2371
     18 O         143.4433  142.2047  160.5303 O.2     1  UNL1       -0.2737
     19 N         141.7244  143.9687  161.3572 N.am    1  UNL1       -0.2959
     20 H         141.4866  144.7107  161.9590 H       1  UNL1        0.1499
     21 C         144.0754  143.8321  162.4544 C.3     1  UNL1        0.1316
     22 C         143.7779  145.0636  163.2576 C.3     1  UNL1        0.0270
     23 C         145.4125  141.8938  163.5520 C.3     1  UNL1        0.0862
     24 N         145.3672  143.0976  162.6583 N.3     1  UNL1       -0.2902
     25 H         145.6810  142.7924  161.7370 H       1  UNL1        0.1237
     26 C         136.3054  142.2430  154.6265 C.1     1  UNL1        0.1005
     27 N         135.6129  142.3881  153.3038 N.1     1  UNL1       -0.1908
     28 C         138.3998  140.2462  160.5978 C.3     1  UNL1        0.1278
     29 C         139.3045  139.3511  161.3918 C.ar    1  UNL1        0.0320
     30 C         140.3443  138.5257  160.6935 C.ar    1  UNL1        0.1363
     31 C         141.2490  137.6306  161.4873 C.ar    1  UNL1        0.0366
     32 C         141.1139  137.5609  162.9796 C.ar    1  UNL1        0.0031
     33 C         140.0741  138.3862  163.6779 C.ar    1  UNL1       -0.0001
     34 C         139.9390  138.3165  165.1702 C.ar    1  UNL1       -0.0000
     35 C         138.8993  139.1419  165.8686 C.ar    1  UNL1       -0.0000
     36 C         137.9946  140.0370  165.0746 C.ar    1  UNL1       -0.0000
     37 C         138.1297  140.1068  163.5823 C.ar    1  UNL1       -0.0002
     38 C         139.1694  139.2814  162.8840 C.ar    1  UNL1        0.0006
     39 O         140.4794  138.5955  159.2012 O.3     1  UNL1       -0.4717
     40 C         141.5791  139.4084  158.5847 C.3     1  UNL1        0.2525
@<TRIPOS>BOND
     1    23    24    1
     2    24    21    1
     3    21    22    1
     4    21    17    1
     5    17    18    2
     6    17    19   am
     7     1    19    1
     8     1     2    1
     9     2     3    2
    10     2     4   am
    11     4    28    1
    12    28    29    1
    13    29    30   ar
    14    30    39    1
    15    39    40    1
    16    30    31   ar
    17    31    32   ar
    18    32    33   ar
    19    33    34   ar
    20    34    35   ar
    21    35    36   ar
    22    36    37   ar
    23    37    38   ar
    24     4     5    1
    25     5     6   ar
    26     6     7   ar
    27     7     8   ar
    28     8    26    1
    29    26    27    3
    30     8     9   ar
    31     9    10   ar
    32    10    11    1
    33    11    12   am
    34    12    13    1
    35    12    14    2
    36    11    15    1
    37    15    16    1
    38    15     1    1
    39    38    29   ar
    40    10     5   ar
    41    38    33   ar
    42    24    25    1
    43    19    20    1
