@<TRIPOS>MOLECULE
*****
 27 29 0 0 0
SMALL
GASTEIGER

@<TRIPOS>ATOM
      1 C         142.3702  139.4542  165.2813 C.3     1  UNL1        0.1751
      2 C         143.3399  140.0954  164.3333 C.ar    1  UNL1        0.0089
      3 C         144.6649  140.7635  164.5524 C.ar    1  UNL1       -0.0021
      4 C         145.4242  141.3237  163.3865 C.ar    1  UNL1       -0.0003
      5 C         144.8585  141.2158  162.0014 C.ar    1  UNL1        0.0001
      6 C         143.5336  140.5477  161.7823 C.ar    1  UNL1        0.0043
      7 C         142.7743  139.9875  162.9483 C.ar    1  UNL1        0.0516
      8 C         141.4550  139.2797  163.0402 C.2     1  UNL1        0.2493
      9 O         140.5451  138.9580  161.8919 O.2     1  UNL1       -0.2699
     10 N         141.2052  138.9501  164.4821 N.am    1  UNL1       -0.2658
     11 N         141.6527  140.1296  167.6853 N.am    1  UNL1       -0.3027
     12 C         142.5363  139.3377  166.7675 C.2     1  UNL1        0.2449
     13 O         143.5859  138.4294  167.3359 O.2     1  UNL1       -0.2729
     14 H         140.9638  140.7258  167.3123 H       1  UNL1        0.1495
     15 C         141.8189  140.0130  169.1715 C.3     1  UNL1        0.0894
     16 C         139.2818  140.4163  169.5590 C.3     1  UNL1        0.0018
     17 C         140.6109  139.9311  170.0570 C.3     1  UNL1        0.0212
     18 C         140.0018  138.2409  165.0288 C.3     1  UNL1        0.0987
     19 C         138.8129  139.0293  165.4924 C.3     1  UNL1        0.0422
     20 C         137.9157  138.4759  166.5595 C.3     1  UNL1        0.0065
     21 C         138.5212  140.3712  164.8888 C.ar    1  UNL1       -0.0208
     22 C         137.6786  140.4700  163.6518 C.ar    1  UNL1       -0.0034
     23 C         137.3868  141.8118  163.0482 C.ar    1  UNL1        0.0111
     24 C         137.9377  143.0549  163.6817 C.ar    1  UNL1        0.0577
     25 CL        137.6459  144.3967  163.0781 Cl      1  UNL1       -0.0822
     26 C         138.7803  142.9561  164.9187 C.ar    1  UNL1        0.0111
     27 C         139.0721  141.6143  165.5223 C.ar    1  UNL1       -0.0034
@<TRIPOS>BOND
     1    16    17    1
     2    17    15    1
     3    15    11    1
     4    11    12   am
     5    12    13    2
     6    12     1    1
     7     1     2    1
     8     2     3   ar
     9     3     4   ar
    10     4     5   ar
    11     5     6   ar
    12     6     7   ar
    13     7     8    1
    14     8     9    2
    15     8    10   am
    16    10    18    1
    17    18    19    1
    18    19    20    1
    19    19    21    1
    20    21    22   ar
    21    22    23   ar
    22    23    24   ar
    23    24    25    1
    24    24    26   ar
    25    26    27   ar
    26    10     1    1
    27    27    21   ar
    28     7     2   ar
    29    11    14    1
@<TRIPOS>MOLECULE
*****
 27 29 0 0 0
SMALL
GASTEIGER

@<TRIPOS>ATOM
      1 C         141.8214  141.6049  165.7504 C.3     1  UNL1        0.1751
      2 C         143.1020  141.7450  164.9819 C.ar    1  UNL1        0.0089
      3 C         143.7175  142.9071  164.2603 C.ar    1  UNL1       -0.0021
      4 C         145.0375  142.7451  163.5666 C.ar    1  UNL1       -0.0003
      5 C         145.7421  141.4212  163.5946 C.ar    1  UNL1        0.0001
      6 C         145.1266  140.2592  164.3163 C.ar    1  UNL1        0.0043
      7 C         143.8065  140.4211  165.0099 C.ar    1  UNL1        0.0516
      8 C         142.9614  139.4628  165.7957 C.2     1  UNL1        0.2493
      9 O         143.2862  138.0252  166.0748 O.2     1  UNL1       -0.2699
     10 N         141.7345  140.1945  166.2533 N.am    1  UNL1       -0.2658
     11 N         140.2105  143.4116  164.8064 N.am    1  UNL1       -0.3027
     12 C         140.8060  142.6857  165.9762 C.2     1  UNL1        0.2449
     13 O         140.3861  143.0405  167.3718 O.2     1  UNL1       -0.2729
     14 H         140.4861  143.1788  163.8904 H       1  UNL1        0.1495
     15 C         139.1951  144.4924  165.0322 C.3     1  UNL1        0.0894
     16 C         137.6022  143.5557  163.2059 C.3     1  UNL1        0.0018
     17 C         137.8175  144.3597  164.4539 C.3     1  UNL1        0.0212
     18 C         140.6170  139.6170  167.0704 C.3     1  UNL1        0.0987
     19 C         139.3350  139.2102  166.4064 C.3     1  UNL1        0.0422
     20 C         138.0884  139.0400  167.2232 C.3     1  UNL1        0.0065
     21 C         139.2996  138.9735  164.9256 C.ar    1  UNL1       -0.0208
     22 C         139.9853  137.7743  164.3412 C.ar    1  UNL1       -0.0034
     23 C         139.9498  137.5376  162.8604 C.ar    1  UNL1        0.0111
     24 C         139.2287  138.5001  161.9641 C.ar    1  UNL1        0.0577
     25 CL        139.1932  138.2634  160.4833 Cl      1  UNL1       -0.0822
     26 C         138.5429  139.6994  162.5485 C.ar    1  UNL1        0.0111
     27 C         138.5783  139.9361  164.0293 C.ar    1  UNL1       -0.0034
@<TRIPOS>BOND
     1    16    17    1
     2    17    15    1
     3    15    11    1
     4    11    12   am
     5    12    13    2
     6    12     1    1
     7     1     2    1
     8     2     3   ar
     9     3     4   ar
    10     4     5   ar
    11     5     6   ar
    12     6     7   ar
    13     7     8    1
    14     8     9    2
    15     8    10   am
    16    10    18    1
    17    18    19    1
    18    19    20    1
    19    19    21    1
    20    21    22   ar
    21    22    23   ar
    22    23    24   ar
    23    24    25    1
    24    24    26   ar
    25    26    27   ar
    26    10     1    1
    27    27    21   ar
    28     7     2   ar
    29    11    14    1
@<TRIPOS>MOLECULE
*****
 27 29 0 0 0
SMALL
GASTEIGER

@<TRIPOS>ATOM
      1 C         140.5641  140.1177  166.6752 C.3     1  UNL1        0.1751
      2 C         140.8285  140.4050  168.1235 C.ar    1  UNL1        0.0089
      3 C         140.0656  141.1941  169.1459 C.ar    1  UNL1       -0.0021
      4 C         140.5873  141.3080  170.5476 C.ar    1  UNL1       -0.0003
      5 C         141.8719  140.6328  170.9269 C.ar    1  UNL1        0.0001
      6 C         142.6348  139.8437  169.9046 C.ar    1  UNL1        0.0043
      7 C         142.1132  139.7298  168.5029 C.ar    1  UNL1        0.0516
      8 C         142.6426  139.0253  167.2890 C.2     1  UNL1        0.2493
      9 O         143.9074  138.2221  167.2174 O.2     1  UNL1       -0.2699
     10 N         141.6852  139.2651  166.1595 N.am    1  UNL1       -0.2658
     11 N         139.3468  142.0109  165.3772 N.am    1  UNL1       -0.3027
     12 C         139.3853  140.5988  165.8819 C.2     1  UNL1        0.2449
     13 O         138.2452  139.6679  165.5934 O.2     1  UNL1       -0.2729
     14 H         140.0951  142.6219  165.5666 H       1  UNL1        0.1495
     15 C         138.1681  142.4919  164.5840 C.3     1  UNL1        0.0894
     16 C         138.6382  144.9268  165.3583 C.3     1  UNL1        0.0018
     17 C         137.8383  143.9546  164.5429 C.3     1  UNL1        0.0212
     18 C         141.8245  138.7437  164.7599 C.3     1  UNL1        0.0987
     19 C         142.7804  139.3985  163.8073 C.3     1  UNL1        0.0422
     20 C         143.4667  138.5811  162.7532 C.3     1  UNL1        0.0065
     21 C         143.0501  140.8705  163.9088 C.ar    1  UNL1       -0.0208
     22 C         142.0998  141.8516  163.2889 C.ar    1  UNL1       -0.0034
     23 C         142.3695  143.3237  163.3903 C.ar    1  UNL1        0.0111
     24 C         143.5895  143.8146  164.1117 C.ar    1  UNL1        0.0577
     25 CL        143.8592  145.2867  164.2131 Cl      1  UNL1       -0.0822
     26 C         144.5399  142.8335  164.7316 C.ar    1  UNL1        0.0111
     27 C         144.2702  141.3615  164.6302 C.ar    1  UNL1       -0.0034
@<TRIPOS>BOND
     1    16    17    1
     2    17    15    1
     3    15    11    1
     4    11    12   am
     5    12    13    2
     6    12     1    1
     7     1     2    1
     8     2     3   ar
     9     3     4   ar
    10     4     5   ar
    11     5     6   ar
    12     6     7   ar
    13     7     8    1
    14     8     9    2
    15     8    10   am
    16    10    18    1
    17    18    19    1
    18    19    20    1
    19    19    21    1
    20    21    22   ar
    21    22    23   ar
    22    23    24   ar
    23    24    25    1
    24    24    26   ar
    25    26    27   ar
    26    10     1    1
    27    27    21   ar
    28     7     2   ar
    29    11    14    1
@<TRIPOS>MOLECULE
*****
 27 29 0 0 0
SMALL
GASTEIGER

@<TRIPOS>ATOM
      1 C         141.4309  140.7004  163.9433 C.3     1  UNL1        0.1751
      2 C         142.8419  141.1210  163.6560 C.ar    1  UNL1        0.0089
      3 C         143.4078  142.2396  162.8324 C.ar    1  UNL1       -0.0021
      4 C         144.8936  142.4166  162.7280 C.ar    1  UNL1       -0.0003
      5 C         145.8135  141.4750  163.4473 C.ar    1  UNL1        0.0001
      6 C         145.2475  140.3564  164.2708 C.ar    1  UNL1        0.0043
      7 C         143.7617  140.1794  164.3752 C.ar    1  UNL1        0.0516
      8 C         142.9193  139.1770  165.1070 C.2     1  UNL1        0.2493
      9 O         143.4281  138.0503  165.9566 O.2     1  UNL1       -0.2699
     10 N         141.4788  139.4990  164.8401 N.am    1  UNL1       -0.2658
     11 N         139.9256  142.8080  163.7370 N.am    1  UNL1       -0.3027
     12 C         140.1900  141.3648  163.4248 C.2     1  UNL1        0.2449
     13 O         139.2136  140.5861  162.5941 O.2     1  UNL1       -0.2729
     14 H         140.5665  143.3191  164.2822 H       1  UNL1        0.1495
     15 C         138.6847  143.4723  163.2185 C.3     1  UNL1        0.0894
     16 C         138.4816  144.8404  165.4178 C.3     1  UNL1        0.0018
     17 C         137.9119  144.4091  164.0989 C.3     1  UNL1        0.0212
     18 C         140.2942  138.7509  165.3758 C.3     1  UNL1        0.0987
     19 C         139.5087  139.3129  166.5235 C.3     1  UNL1        0.0422
     20 C         138.0978  138.8611  166.7593 C.3     1  UNL1        0.0065
     21 C         140.1339  140.3266  167.4353 C.ar    1  UNL1       -0.0208
     22 C         139.9867  141.7904  167.1426 C.ar    1  UNL1       -0.0034
     23 C         140.6120  142.8041  168.0545 C.ar    1  UNL1        0.0111
     24 C         141.3844  142.3541  169.2589 C.ar    1  UNL1        0.0577
     25 CL        142.0097  143.3678  170.1708 Cl      1  UNL1       -0.0822
     26 C         141.5316  140.8902  169.5516 C.ar    1  UNL1        0.0111
     27 C         140.9064  139.8765  168.6398 C.ar    1  UNL1       -0.0034
@<TRIPOS>BOND
     1    16    17    1
     2    17    15    1
     3    15    11    1
     4    11    12   am
     5    12    13    2
     6    12     1    1
     7     1     2    1
     8     2     3   ar
     9     3     4   ar
    10     4     5   ar
    11     5     6   ar
    12     6     7   ar
    13     7     8    1
    14     8     9    2
    15     8    10   am
    16    10    18    1
    17    18    19    1
    18    19    20    1
    19    19    21    1
    20    21    22   ar
    21    22    23   ar
    22    23    24   ar
    23    24    25    1
    24    24    26   ar
    25    26    27   ar
    26    10     1    1
    27    27    21   ar
    28     7     2   ar
    29    11    14    1
@<TRIPOS>MOLECULE
*****
 27 29 0 0 0
SMALL
GASTEIGER

@<TRIPOS>ATOM
      1 C         140.7137  139.8338  165.8467 C.3     1  UNL1        0.1751
      2 C         140.5439  140.3613  167.2405 C.ar    1  UNL1        0.0089
      3 C         141.3935  141.2677  168.0811 C.ar    1  UNL1       -0.0021
      4 C         140.9579  141.6289  169.4702 C.ar    1  UNL1       -0.0003
      5 C         139.6727  141.0837  170.0188 C.ar    1  UNL1        0.0001
      6 C         138.8231  140.1773  169.1783 C.ar    1  UNL1        0.0043
      7 C         139.2587  139.8161  167.7892 C.ar    1  UNL1        0.0516
      8 C         138.6342  138.9516  166.7343 C.2     1  UNL1        0.2493
      9 O         137.3380  138.2069  166.8583 O.2     1  UNL1       -0.2699
     10 N         139.5334  138.9625  165.5338 N.am    1  UNL1       -0.2658
     11 N         142.8221  139.0350  164.5557 N.am    1  UNL1       -0.3027
     12 C         141.8621  140.1262  164.9271 C.2     1  UNL1        0.2449
     13 O         142.0507  141.5096  164.3790 O.2     1  UNL1       -0.2729
     14 H         142.6984  138.1270  164.9154 H       1  UNL1        0.1495
     15 C         143.9706  139.3274  163.6361 C.3     1  UNL1        0.0894
     16 C         145.6227  141.3308  163.7164 C.3     1  UNL1        0.0018
     17 C         145.2196  139.9603  164.1740 C.3     1  UNL1        0.0212
     18 C         139.2944  138.2307  164.2465 C.3     1  UNL1        0.0987
     19 C         138.6351  138.9322  163.0962 C.3     1  UNL1        0.0422
     20 C         137.9834  138.1349  162.0054 C.3     1  UNL1        0.0065
     21 C         138.6275  140.4310  163.0366 C.ar    1  UNL1       -0.0208
     22 C         137.7287  141.2132  163.9477 C.ar    1  UNL1       -0.0034
     23 C         137.7210  142.7120  163.8881 C.ar    1  UNL1        0.0111
     24 C         138.6122  143.4286  162.9174 C.ar    1  UNL1        0.0577
     25 CL        138.6046  144.9274  162.8578 Cl      1  UNL1       -0.0822
     26 C         139.5111  142.6463  162.0062 C.ar    1  UNL1        0.0111
     27 C         139.5187  141.1475  162.0658 C.ar    1  UNL1       -0.0034
@<TRIPOS>BOND
     1    16    17    1
     2    17    15    1
     3    15    11    1
     4    11    12   am
     5    12    13    2
     6    12     1    1
     7     1     2    1
     8     2     3   ar
     9     3     4   ar
    10     4     5   ar
    11     5     6   ar
    12     6     7   ar
    13     7     8    1
    14     8     9    2
    15     8    10   am
    16    10    18    1
    17    18    19    1
    18    19    20    1
    19    19    21    1
    20    21    22   ar
    21    22    23   ar
    22    23    24   ar
    23    24    25    1
    24    24    26   ar
    25    26    27   ar
    26    10     1    1
    27    27    21   ar
    28     7     2   ar
    29    11    14    1
@<TRIPOS>MOLECULE
*****
 27 29 0 0 0
SMALL
GASTEIGER

@<TRIPOS>ATOM
      1 C         141.3672  141.6234  163.9270 C.3     1  UNL1        0.1751
      2 C         140.8670  142.9362  163.4013 C.ar    1  UNL1        0.0089
      3 C         139.5948  143.3197  162.7054 C.ar    1  UNL1       -0.0021
      4 C         139.3679  144.7423  162.2875 C.ar    1  UNL1       -0.0003
      5 C         140.4132  145.7815  162.5656 C.ar    1  UNL1        0.0001
      6 C         141.6854  145.3981  163.2615 C.ar    1  UNL1        0.0043
      7 C         141.9123  143.9754  163.6794 C.ar    1  UNL1        0.0516
      8 C         143.0585  143.3048  164.3769 C.2     1  UNL1        0.2493
      9 O         144.3202  143.9710  164.8401 O.2     1  UNL1       -0.2699
     10 N         142.7216  141.8512  164.5299 N.am    1  UNL1       -0.2658
     11 N         139.2991  140.1653  164.5164 N.am    1  UNL1       -0.3027
     12 C         140.6404  140.3129  163.8612 C.2     1  UNL1        0.2449
     13 O         141.2549  139.1499  163.1403 O.2     1  UNL1       -0.2729
     14 H         138.8958  140.9286  164.9896 H       1  UNL1        0.1495
     15 C         138.5724  138.8548  164.4506 C.3     1  UNL1        0.0894
     16 C         137.6847  138.2490  166.8160 C.3     1  UNL1        0.0018
     17 C         138.5641  137.9413  165.6404 C.3     1  UNL1        0.0212
     18 C         143.5872  140.8085  165.1730 C.3     1  UNL1        0.0987
     19 C         143.0706  140.0207  166.3402 C.3     1  UNL1        0.0422
     20 C         143.4003  138.5627  166.4659 C.3     1  UNL1        0.0065
     21 C         142.2244  140.6907  167.3818 C.ar    1  UNL1       -0.0208
     22 C         140.8625  140.1503  167.7031 C.ar    1  UNL1       -0.0034
     23 C         140.0163  140.8204  168.7447 C.ar    1  UNL1        0.0111
     24 C         140.5319  142.0309  169.4650 C.ar    1  UNL1        0.0577
     25 CL        139.6856  142.7009  170.5065 Cl      1  UNL1       -0.0822
     26 C         141.8938  142.5713  169.1437 C.ar    1  UNL1        0.0111
     27 C         142.7400  141.9013  168.1021 C.ar    1  UNL1       -0.0034
@<TRIPOS>BOND
     1    16    17    1
     2    17    15    1
     3    15    11    1
     4    11    12   am
     5    12    13    2
     6    12     1    1
     7     1     2    1
     8     2     3   ar
     9     3     4   ar
    10     4     5   ar
    11     5     6   ar
    12     6     7   ar
    13     7     8    1
    14     8     9    2
    15     8    10   am
    16    10    18    1
    17    18    19    1
    18    19    20    1
    19    19    21    1
    20    21    22   ar
    21    22    23   ar
    22    23    24   ar
    23    24    25    1
    24    24    26   ar
    25    26    27   ar
    26    10     1    1
    27    27    21   ar
    28     7     2   ar
    29    11    14    1
@<TRIPOS>MOLECULE
*****
 27 29 0 0 0
SMALL
GASTEIGER

@<TRIPOS>ATOM
      1 C         140.5157  141.0713  166.9805 C.3     1  UNL1        0.1751
      2 C         141.1848  141.4794  168.2594 C.ar    1  UNL1        0.0089
      3 C         142.4305  142.2690  168.5329 C.ar    1  UNL1       -0.0021
      4 C         142.8617  142.5236  169.9468 C.ar    1  UNL1       -0.0003
      5 C         142.0473  141.9886  171.0872 C.ar    1  UNL1        0.0001
      6 C         140.8016  141.1990  170.8137 C.ar    1  UNL1        0.0043
      7 C         140.3704  140.9444  169.3998 C.ar    1  UNL1        0.0516
      8 C         139.1979  140.2057  168.8257 C.2     1  UNL1        0.2493
      9 O         138.1242  139.5106  169.6092 O.2     1  UNL1       -0.2699
     10 N         139.2877  140.2841  167.3304 N.am    1  UNL1       -0.2658
     11 N         142.4084  141.1002  165.2008 N.am    1  UNL1       -0.3027
     12 C         140.9911  141.3938  165.5948 C.2     1  UNL1        0.2449
     13 O         140.0494  142.0099  164.6032 O.2     1  UNL1       -0.2729
     14 H         143.0266  140.6958  165.8517 H       1  UNL1        0.1495
     15 C         142.8838  141.4227  163.8152 C.3     1  UNL1        0.0894
     16 C         144.9665  139.8929  164.0831 C.3     1  UNL1        0.0018
     17 C         144.0028  140.6330  163.2035 C.3     1  UNL1        0.0212
     18 C         138.3195  139.6812  166.3562 C.3     1  UNL1        0.0987
     19 C         138.5657  138.3072  165.8071 C.3     1  UNL1        0.0422
     20 C         137.8847  137.1206  166.4221 C.3     1  UNL1        0.0065
     21 C         139.4928  138.1198  164.6429 C.ar    1  UNL1       -0.0208
     22 C         140.9509  137.8591  164.8797 C.ar    1  UNL1       -0.0034
     23 C         141.8780  137.6717  163.7156 C.ar    1  UNL1        0.0111
     24 C         141.3471  137.7449  162.3146 C.ar    1  UNL1        0.0577
     25 CL        142.2743  137.5574  161.1504 Cl      1  UNL1       -0.0822
     26 C         139.8890  138.0056  162.0777 C.ar    1  UNL1        0.0111
     27 C         138.9619  138.1930  163.2419 C.ar    1  UNL1       -0.0034
@<TRIPOS>BOND
     1    16    17    1
     2    17    15    1
     3    15    11    1
     4    11    12   am
     5    12    13    2
     6    12     1    1
     7     1     2    1
     8     2     3   ar
     9     3     4   ar
    10     4     5   ar
    11     5     6   ar
    12     6     7   ar
    13     7     8    1
    14     8     9    2
    15     8    10   am
    16    10    18    1
    17    18    19    1
    18    19    20    1
    19    19    21    1
    20    21    22   ar
    21    22    23   ar
    22    23    24   ar
    23    24    25    1
    24    24    26   ar
    25    26    27   ar
    26    10     1    1
    27    27    21   ar
    28     7     2   ar
    29    11    14    1
@<TRIPOS>MOLECULE
*****
 27 29 0 0 0
SMALL
GASTEIGER

@<TRIPOS>ATOM
      1 C         140.3475  141.1451  165.9147 C.3     1  UNL1        0.1751
      2 C         139.5693  142.3889  165.6027 C.ar    1  UNL1        0.0089
      3 C         139.7120  143.8063  166.0720 C.ar    1  UNL1       -0.0021
      4 C         138.7652  144.8592  165.5771 C.ar    1  UNL1       -0.0003
      5 C         137.6755  144.4945  164.6128 C.ar    1  UNL1        0.0001
      6 C         137.5328  143.0770  164.1435 C.ar    1  UNL1        0.0043
      7 C         138.4796  142.0242  164.6384 C.ar    1  UNL1        0.0516
      8 C         138.5845  140.5550  164.3546 C.2     1  UNL1        0.2493
      9 O         137.6916  139.7675  163.4421 O.2     1  UNL1       -0.2699
     10 N         139.7389  140.0117  165.1433 N.am    1  UNL1       -0.2658
     11 N         141.4423  140.2181  168.0809 N.am    1  UNL1       -0.3027
     12 C         141.5272  141.0512  166.8363 C.2     1  UNL1        0.2449
     13 O         142.7919  141.7902  166.5135 O.2     1  UNL1       -0.2729
     14 H         140.6122  139.7330  168.2929 H       1  UNL1        0.1495
     15 C         142.6220  140.1242  169.0025 C.3     1  UNL1        0.0894
     16 C         143.7597  142.3287  169.7744 C.3     1  UNL1        0.0018
     17 C         142.8410  141.1754  170.0499 C.3     1  UNL1        0.0212
     18 C         140.2031  138.5854  165.1581 C.3     1  UNL1        0.0987
     19 C         141.2946  138.1423  164.2296 C.3     1  UNL1        0.0422
     20 C         141.1951  136.8174  163.5332 C.3     1  UNL1        0.0065
     21 C         142.4857  139.0240  163.9973 C.ar    1  UNL1       -0.0208
     22 C         142.4278  140.1046  162.9587 C.ar    1  UNL1       -0.0034
     23 C         143.6188  140.9864  162.7264 C.ar    1  UNL1        0.0111
     24 C         144.8678  140.7875  163.5329 C.ar    1  UNL1        0.0577
     25 CL        146.0589  141.6692  163.3007 Cl      1  UNL1       -0.0822
     26 C         144.9258  139.7068  164.5716 C.ar    1  UNL1        0.0111
     27 C         143.7348  138.8251  164.8038 C.ar    1  UNL1       -0.0034
@<TRIPOS>BOND
     1    16    17    1
     2    17    15    1
     3    15    11    1
     4    11    12   am
     5    12    13    2
     6    12     1    1
     7     1     2    1
     8     2     3   ar
     9     3     4   ar
    10     4     5   ar
    11     5     6   ar
    12     6     7   ar
    13     7     8    1
    14     8     9    2
    15     8    10   am
    16    10    18    1
    17    18    19    1
    18    19    20    1
    19    19    21    1
    20    21    22   ar
    21    22    23   ar
    22    23    24   ar
    23    24    25    1
    24    24    26   ar
    25    26    27   ar
    26    10     1    1
    27    27    21   ar
    28     7     2   ar
    29    11    14    1
@<TRIPOS>MOLECULE
*****
 27 29 0 0 0
SMALL
GASTEIGER

@<TRIPOS>ATOM
      1 C         140.7224  141.5874  166.1250 C.3     1  UNL1        0.1751
      2 C         139.7549  142.5328  165.4770 C.ar    1  UNL1        0.0089
      3 C         139.5826  144.0193  165.5797 C.ar    1  UNL1       -0.0021
      4 C         138.5034  144.7052  164.7957 C.ar    1  UNL1       -0.0003
      5 C         137.5963  143.9046  163.9090 C.ar    1  UNL1        0.0001
      6 C         137.7686  142.4181  163.8062 C.ar    1  UNL1        0.0043
      7 C         138.8479  141.7322  164.5902 C.ar    1  UNL1        0.0516
      8 C         139.2548  140.2919  164.6903 C.2     1  UNL1        0.2493
      9 O         138.6155  139.1429  163.9685 O.2     1  UNL1       -0.2699
     10 N         140.4133  140.2024  165.6389 N.am    1  UNL1       -0.2658
     11 N         141.4681  142.2772  168.5164 N.am    1  UNL1       -0.3027
     12 C         141.8083  141.9612  167.0899 C.2     1  UNL1        0.2449
     13 O         143.2343  142.0192  166.6286 O.2     1  UNL1       -0.2729
     14 H         140.5321  142.2392  168.8192 H       1  UNL1        0.1495
     15 C         142.5540  142.6511  169.4812 C.3     1  UNL1        0.0894
     16 C         142.9544  140.2648  170.4272 C.3     1  UNL1        0.0018
     17 C         143.4891  141.6001  170.0019 C.3     1  UNL1        0.0212
     18 C         141.1359  138.9481  166.0322 C.3     1  UNL1        0.0987
     19 C         142.5255  138.6937  165.5281 C.3     1  UNL1        0.0422
     20 C         143.6125  138.3080  166.4872 C.3     1  UNL1        0.0065
     21 C         142.8283  138.8248  164.0648 C.ar    1  UNL1       -0.0208
     22 C         143.9024  139.7642  163.6024 C.ar    1  UNL1       -0.0034
     23 C         144.2051  139.8953  162.1392 C.ar    1  UNL1        0.0111
     24 C         143.4338  139.0871  161.1383 C.ar    1  UNL1        0.0577
     25 CL        143.7366  139.2183  159.6750 Cl      1  UNL1       -0.0822
     26 C         142.3596  138.1477  161.6007 C.ar    1  UNL1        0.0111
     27 C         142.0569  138.0166  163.0639 C.ar    1  UNL1       -0.0034
@<TRIPOS>BOND
     1    16    17    1
     2    17    15    1
     3    15    11    1
     4    11    12   am
     5    12    13    2
     6    12     1    1
     7     1     2    1
     8     2     3   ar
     9     3     4   ar
    10     4     5   ar
    11     5     6   ar
    12     6     7   ar
    13     7     8    1
    14     8     9    2
    15     8    10   am
    16    10    18    1
    17    18    19    1
    18    19    20    1
    19    19    21    1
    20    21    22   ar
    21    22    23   ar
    22    23    24   ar
    23    24    25    1
    24    24    26   ar
    25    26    27   ar
    26    10     1    1
    27    27    21   ar
    28     7     2   ar
    29    11    14    1
