@<TRIPOS>MOLECULE
*****
 31 35 0 0 0
SMALL
GASTEIGER

@<TRIPOS>ATOM
      1 O         138.7082  143.7510  155.4261 O.2     1  UNL1       -0.2258
      2 C         139.2868  144.2878  156.7017 C.2     1  UNL1        0.4086
      3 O         139.4615  143.5238  157.9808 O.3     1  UNL1       -0.4398
      4 C         140.0750  144.4466  158.9918 C.3     1  UNL1        0.1561
      5 C         139.8112  143.0636  159.5091 C.3     1  UNL1        0.0425
      6 C         140.1592  142.7137  160.9255 C.3     1  UNL1        0.0160
      7 C         140.7709  143.7467  161.8247 C.3     1  UNL1        0.1122
      8 C         141.0347  145.1297  161.3074 C.3     1  UNL1        0.0160
      9 C         140.6867  145.4797  159.8910 C.3     1  UNL1        0.0425
     10 C         140.2794  145.7809  158.3375 C.3     1  UNL1        0.1414
     11 N         139.7923  145.6828  156.9222 N.am    1  UNL1       -0.2215
     12 C         141.1189  143.3967  163.2412 C.2     1  UNL1        0.3506
     13 N         140.1473  143.2239  164.3709 N.2     1  UNL1       -0.0350
     14 C         140.9274  142.8785  165.6046 C.2     1  UNL1        0.2348
     15 C         140.5019  142.5957  167.0149 C.2     1  UNL1        0.0869
     16 C         141.5302  142.2722  168.0580 C.2     1  UNL1        0.1468
     17 C         142.9839  142.2314  167.6908 C.2     1  UNL1        0.0200
     18 C         143.4095  142.5142  166.2805 C.3     1  UNL1        0.1068
     19 C         142.3813  142.8377  165.2374 C.2     1  UNL1        0.2176
     20 N         142.4995  143.1580  163.7768 N.2     1  UNL1       -0.0389
     21 O         141.1047  141.9895  169.4683 O.2     1  UNL1       -0.4047
     22 C         140.2188  142.9591  170.1931 C.3     1  UNL1        0.5753
     23 F         139.3330  143.9286  170.9179 F       1  UNL1       -0.1328
     24 F         139.1558  141.9065  170.3019 F       1  UNL1       -0.1328
     25 F         141.2819  144.0117  170.0843 F       1  UNL1       -0.1328
     26 C         139.8079  146.7858  155.9059 C.ar    1  UNL1        0.0571
     27 C         139.0432  148.0508  156.1603 C.ar    1  UNL1        0.0150
     28 C         139.0588  149.1539  155.1439 C.ar    1  UNL1        0.0013
     29 C         139.8392  148.9920  153.8732 C.ar    1  UNL1        0.0001
     30 C         140.6040  147.7268  153.6188 C.ar    1  UNL1        0.0013
     31 C         140.5883  146.6238  154.6352 C.ar    1  UNL1        0.0150
@<TRIPOS>BOND
     1     1     2    2
     2     2     3    1
     3     3     4    1
     4     4     5    1
     5     5     6    1
     6     6     7    1
     7     7    12    1
     8    12    13    2
     9    13    14    1
    10    14    15    2
    11    15    16    1
    12    16    21    1
    13    21    22    1
    14    22    23    1
    15    22    24    1
    16    22    25    1
    17    16    17    2
    18    17    18    1
    19    18    19    1
    20    19    20    2
    21     7     8    1
    22     8     9    1
    23     4    10    1
    24    10    11    1
    25    11    26    1
    26    26    27   ar
    27    27    28   ar
    28    28    29   ar
    29    29    30   ar
    30    30    31   ar
    31    11     2   am
    32    31    26   ar
    33     9     4    1
    34    20    12    1
    35    19    14    1
@<TRIPOS>MOLECULE
*****
 31 35 0 0 0
SMALL
GASTEIGER

@<TRIPOS>ATOM
      1 O         143.2908  139.6273  156.1106 O.2     1  UNL1       -0.2258
      2 C         143.0498  139.0545  157.4758 C.2     1  UNL1        0.4086
      3 O         143.0942  139.8115  158.7701 O.3     1  UNL1       -0.4398
      4 C         142.7939  138.8489  159.8806 C.3     1  UNL1        0.1561
      5 C         143.0478  140.2532  160.3424 C.3     1  UNL1        0.0425
      6 C         142.9881  140.5843  161.8042 C.3     1  UNL1        0.0160
      7 C         142.6743  139.5112  162.8041 C.3     1  UNL1        0.1122
      8 C         142.4204  138.1068  162.3423 C.3     1  UNL1        0.0160
      9 C         142.4802  137.7757  160.8805 C.3     1  UNL1        0.0425
     10 C         142.5639  137.4969  159.2727 C.3     1  UNL1        0.1414
     11 N         142.7220  137.6240  157.7865 N.am    1  UNL1       -0.2215
     12 C         142.6145  139.8424  164.2659 C.2     1  UNL1        0.3506
     13 N         142.3038  141.1871  164.8533 N.2     1  UNL1       -0.0350
     14 C         142.3522  141.0628  166.3473 C.2     1  UNL1        0.2348
     15 C         142.1302  142.0604  167.4452 C.2     1  UNL1        0.0869
     16 C         142.2487  141.6363  168.8792 C.2     1  UNL1        0.1468
     17 C         142.5893  140.2147  169.2152 C.2     1  UNL1        0.0200
     18 C         142.8114  139.2171  168.1173 C.3     1  UNL1        0.1068
     19 C         142.6929  139.6411  166.6834 C.2     1  UNL1        0.2176
     20 N         142.8550  138.8869  165.3970 N.2     1  UNL1       -0.0389
     21 O         142.0267  142.6339  169.9771 O.2     1  UNL1       -0.4047
     22 C         140.6350  142.9263  170.4546 C.3     1  UNL1        0.5753
     23 F         139.2435  143.2187  170.9321 F       1  UNL1       -0.1328
     24 F         140.6901  141.7248  171.3508 F       1  UNL1       -0.1328
     25 F         140.5799  144.1279  169.5584 F       1  UNL1       -0.1328
     26 C         142.5777  136.5154  156.7865 C.ar    1  UNL1        0.0571
     27 C         143.6933  135.5320  156.5908 C.ar    1  UNL1        0.0150
     28 C         143.5490  134.4233  155.5908 C.ar    1  UNL1        0.0013
     29 C         142.2891  134.2979  154.7865 C.ar    1  UNL1        0.0001
     30 C         141.1734  135.2814  154.9822 C.ar    1  UNL1        0.0013
     31 C         141.3178  136.3900  155.9823 C.ar    1  UNL1        0.0150
@<TRIPOS>BOND
     1     1     2    2
     2     2     3    1
     3     3     4    1
     4     4     5    1
     5     5     6    1
     6     6     7    1
     7     7    12    1
     8    12    13    2
     9    13    14    1
    10    14    15    2
    11    15    16    1
    12    16    21    1
    13    21    22    1
    14    22    23    1
    15    22    24    1
    16    22    25    1
    17    16    17    2
    18    17    18    1
    19    18    19    1
    20    19    20    2
    21     7     8    1
    22     8     9    1
    23     4    10    1
    24    10    11    1
    25    11    26    1
    26    26    27   ar
    27    27    28   ar
    28    28    29   ar
    29    29    30   ar
    30    30    31   ar
    31    11     2   am
    32    31    26   ar
    33     9     4    1
    34    20    12    1
    35    19    14    1
@<TRIPOS>MOLECULE
*****
 31 35 0 0 0
SMALL
GASTEIGER

@<TRIPOS>ATOM
      1 O         137.4218  138.6219  166.7377 O.2     1  UNL1       -0.2258
      2 C         138.2527  139.5731  165.9285 C.2     1  UNL1        0.4086
      3 O         137.9699  140.0151  164.5232 O.3     1  UNL1       -0.4398
      4 C         139.0548  140.9644  164.1087 C.3     1  UNL1        0.1561
      5 C         138.0199  140.7210  163.0505 C.3     1  UNL1        0.0425
      6 C         138.1318  141.4054  161.7205 C.3     1  UNL1        0.0160
      7 C         139.2787  142.3333  161.4486 C.3     1  UNL1        0.1122
      8 C         140.3135  142.5767  162.5068 C.3     1  UNL1        0.0160
      9 C         140.2016  141.8923  163.8368 C.3     1  UNL1        0.0425
     10 C         140.0081  141.1092  165.2578 C.3     1  UNL1        0.1414
     11 N         139.5124  140.2493  166.3825 N.am    1  UNL1       -0.2215
     12 C         139.3906  143.0177  160.1185 C.2     1  UNL1        0.3506
     13 N         140.1954  144.2491  159.8255 N.2     1  UNL1       -0.0350
     14 C         140.0195  144.5833  158.3738 C.2     1  UNL1        0.2348
     15 C         140.5732  145.6884  157.5241 C.2     1  UNL1        0.0869
     16 C         140.2133  145.7686  156.0700 C.2     1  UNL1        0.1468
     17 C         139.2997  144.7438  155.4659 C.2     1  UNL1        0.0200
     18 C         138.7461  143.6387  156.3157 C.3     1  UNL1        0.1068
     19 C         139.1059  143.5584  157.7696 C.2     1  UNL1        0.2176
     20 N         138.7172  142.5908  158.8479 N.2     1  UNL1       -0.0389
     21 O         140.7670  146.8738  155.2203 O.2     1  UNL1       -0.4047
     22 C         139.8507  147.9232  154.6641 C.3     1  UNL1        0.5753
     23 F         138.9344  148.9725  154.1080 F       1  UNL1       -0.1328
     24 F         140.4429  147.7180  153.3014 F       1  UNL1       -0.1328
     25 F         139.2584  148.1283  156.0269 F       1  UNL1       -0.1328
     26 C         140.1622  140.0931  167.7253 C.ar    1  UNL1        0.0571
     27 C         141.6138  139.7269  167.8180 C.ar    1  UNL1        0.0150
     28 C         142.2637  139.5707  169.1609 C.ar    1  UNL1        0.0013
     29 C         141.4619  139.7807  170.4111 C.ar    1  UNL1        0.0001
     30 C         140.0101  140.1469  170.3184 C.ar    1  UNL1        0.0013
     31 C         139.3604  140.3031  168.9755 C.ar    1  UNL1        0.0150
@<TRIPOS>BOND
     1     1     2    2
     2     2     3    1
     3     3     4    1
     4     4     5    1
     5     5     6    1
     6     6     7    1
     7     7    12    1
     8    12    13    2
     9    13    14    1
    10    14    15    2
    11    15    16    1
    12    16    21    1
    13    21    22    1
    14    22    23    1
    15    22    24    1
    16    22    25    1
    17    16    17    2
    18    17    18    1
    19    18    19    1
    20    19    20    2
    21     7     8    1
    22     8     9    1
    23     4    10    1
    24    10    11    1
    25    11    26    1
    26    26    27   ar
    27    27    28   ar
    28    28    29   ar
    29    29    30   ar
    30    30    31   ar
    31    11     2   am
    32    31    26   ar
    33     9     4    1
    34    20    12    1
    35    19    14    1
@<TRIPOS>MOLECULE
*****
 31 35 0 0 0
SMALL
GASTEIGER

@<TRIPOS>ATOM
      1 O         138.8140  139.5080  168.4334 O.2     1  UNL1       -0.2258
      2 C         139.5893  139.7856  167.1797 C.2     1  UNL1        0.4086
      3 O         139.3484  139.1608  165.8374 O.3     1  UNL1       -0.4398
      4 C         140.3520  139.7258  164.8763 C.3     1  UNL1        0.1561
      5 C         139.4146  138.7281  164.2632 C.3     1  UNL1        0.0425
      6 C         139.5357  138.3802  162.8092 C.3     1  UNL1        0.0160
      7 C         140.5943  139.0300  161.9683 C.3     1  UNL1        0.1122
      8 C         141.5317  140.0276  162.5813 C.3     1  UNL1        0.0160
      9 C         141.4106  140.3755  164.0353 C.3     1  UNL1        0.0425
     10 C         141.2131  140.6998  165.6246 C.3     1  UNL1        0.1414
     11 N         140.7418  140.7368  167.0481 N.am    1  UNL1       -0.2215
     12 C         140.7155  138.6820  160.5142 C.2     1  UNL1        0.3506
     13 N         141.9240  138.0974  159.8452 N.2     1  UNL1       -0.0350
     14 C         141.6048  137.9117  158.3914 C.2     1  UNL1        0.2348
     15 C         142.4126  137.3755  157.2469 C.2     1  UNL1        0.0869
     16 C         141.8145  137.3091  155.8728 C.2     1  UNL1        0.1468
     17 C         140.4086  137.7789  155.6433 C.2     1  UNL1        0.0200
     18 C         139.6008  138.3151  156.7878 C.3     1  UNL1        0.1068
     19 C         140.1988  138.3815  158.1618 C.2     1  UNL1        0.2176
     20 N         139.6492  138.8576  159.4738 N.2     1  UNL1       -0.0389
     21 O         142.6223  136.7729  154.7283 O.2     1  UNL1       -0.4047
     22 C         142.9752  135.3158  154.6771 C.3     1  UNL1        0.5753
     23 F         143.3281  133.8588  154.6259 F       1  UNL1       -0.1328
     24 F         144.3397  135.6273  155.2166 F       1  UNL1       -0.1328
     25 F         141.6107  135.0043  154.1376 F       1  UNL1       -0.1328
     26 C         141.3211  141.5773  168.1471 C.ar    1  UNL1        0.0571
     27 C         142.7559  141.4027  168.5479 C.ar    1  UNL1        0.0150
     28 C         143.3353  142.2432  169.6469 C.ar    1  UNL1        0.0013
     29 C         142.4798  143.2584  170.3451 C.ar    1  UNL1        0.0001
     30 C         141.0448  143.4331  169.9443 C.ar    1  UNL1        0.0013
     31 C         140.4656  142.5925  168.8453 C.ar    1  UNL1        0.0150
@<TRIPOS>BOND
     1     1     2    2
     2     2     3    1
     3     3     4    1
     4     4     5    1
     5     5     6    1
     6     6     7    1
     7     7    12    1
     8    12    13    2
     9    13    14    1
    10    14    15    2
    11    15    16    1
    12    16    21    1
    13    21    22    1
    14    22    23    1
    15    22    24    1
    16    22    25    1
    17    16    17    2
    18    17    18    1
    19    18    19    1
    20    19    20    2
    21     7     8    1
    22     8     9    1
    23     4    10    1
    24    10    11    1
    25    11    26    1
    26    26    27   ar
    27    27    28   ar
    28    28    29   ar
    29    29    30   ar
    30    30    31   ar
    31    11     2   am
    32    31    26   ar
    33     9     4    1
    34    20    12    1
    35    19    14    1
@<TRIPOS>MOLECULE
*****
 31 35 0 0 0
SMALL
GASTEIGER

@<TRIPOS>ATOM
      1 O         143.0231  138.9551  169.1014 O.2     1  UNL1       -0.2258
      2 C         142.5967  139.4864  167.7651 C.2     1  UNL1        0.4086
      3 O         143.0456  138.9744  166.4285 O.3     1  UNL1       -0.4398
      4 C         142.3728  139.7946  165.3680 C.3     1  UNL1        0.1561
      5 C         143.2773  138.7257  164.8303 C.3     1  UNL1        0.0425
      6 C         143.4406  138.5567  163.3489 C.3     1  UNL1        0.0160
      7 C         142.6993  139.4566  162.4051 C.3     1  UNL1        0.1122
      8 C         141.7947  140.5255  162.9428 C.3     1  UNL1        0.0160
      9 C         141.6315  140.6945  164.4243 C.3     1  UNL1        0.0425
     10 C         141.5080  140.8136  166.0492 C.3     1  UNL1        0.1414
     11 N         141.6464  140.6232  167.5306 N.am    1  UNL1       -0.2215
     12 C         142.8626  139.2875  160.9236 C.2     1  UNL1        0.3506
     13 N         142.5178  138.0603  160.1329 N.2     1  UNL1       -0.0350
     14 C         142.8414  138.3303  158.6934 C.2     1  UNL1        0.2348
     15 C         142.7104  137.4869  157.4599 C.2     1  UNL1        0.0869
     16 C         143.1243  138.0376  156.1273 C.2     1  UNL1        0.1468
     17 C         143.6691  139.4316  156.0284 C.2     1  UNL1        0.0200
     18 C         143.8001  140.2750  157.2618 C.3     1  UNL1        0.1068
     19 C         143.3863  139.7244  158.5943 C.2     1  UNL1        0.2176
     20 N         143.3993  140.3159  159.9727 N.2     1  UNL1       -0.0389
     21 O         142.9933  137.1942  154.8939 O.2     1  UNL1       -0.4047
     22 C         143.1479  135.7048  154.9838 C.3     1  UNL1        0.5753
     23 F         143.3025  134.2156  155.0737 F       1  UNL1       -0.1328
     24 F         144.6027  135.8754  155.3068 F       1  UNL1       -0.1328
     25 F         141.6931  135.5343  154.6607 F       1  UNL1       -0.1328
     26 C         140.9558  141.4280  168.5913 C.ar    1  UNL1        0.0571
     27 C         141.3275  142.8657  168.8030 C.ar    1  UNL1        0.0150
     28 C         140.6369  143.6706  169.8637 C.ar    1  UNL1        0.0013
     29 C         139.5745  143.0378  170.7128 C.ar    1  UNL1        0.0001
     30 C         139.2028  141.6001  170.5012 C.ar    1  UNL1        0.0013
     31 C         139.8935  140.7952  169.4404 C.ar    1  UNL1        0.0150
@<TRIPOS>BOND
     1     1     2    2
     2     2     3    1
     3     3     4    1
     4     4     5    1
     5     5     6    1
     6     6     7    1
     7     7    12    1
     8    12    13    2
     9    13    14    1
    10    14    15    2
    11    15    16    1
    12    16    21    1
    13    21    22    1
    14    22    23    1
    15    22    24    1
    16    22    25    1
    17    16    17    2
    18    17    18    1
    19    18    19    1
    20    19    20    2
    21     7     8    1
    22     8     9    1
    23     4    10    1
    24    10    11    1
    25    11    26    1
    26    26    27   ar
    27    27    28   ar
    28    28    29   ar
    29    29    30   ar
    30    30    31   ar
    31    11     2   am
    32    31    26   ar
    33     9     4    1
    34    20    12    1
    35    19    14    1
@<TRIPOS>MOLECULE
*****
 31 35 0 0 0
SMALL
GASTEIGER

@<TRIPOS>ATOM
      1 O         145.2252  139.2123  155.4739 O.2     1  UNL1       -0.2258
      2 C         145.0707  140.2213  156.5729 C.2     1  UNL1        0.4086
      3 O         144.3565  140.0053  157.8743 O.3     1  UNL1       -0.4398
      4 C         144.4476  141.2740  158.6693 C.3     1  UNL1        0.1561
      5 C         143.6975  140.1738  159.3598 C.3     1  UNL1        0.0425
      6 C         143.1196  140.4023  160.7250 C.3     1  UNL1        0.0160
      7 C         143.2918  141.7309  161.3997 C.3     1  UNL1        0.1122
      8 C         144.0418  142.8311  160.7091 C.3     1  UNL1        0.0160
      9 C         144.6197  142.6026  159.3439 C.3     1  UNL1        0.0425
     10 C         145.2180  142.2742  157.8593 C.3     1  UNL1        0.1414
     11 N         145.6031  141.6237  156.5637 N.am    1  UNL1       -0.2215
     12 C         142.7139  141.9593  162.7649 C.2     1  UNL1        0.3506
     13 N         143.4398  141.7992  164.0677 N.2     1  UNL1       -0.0350
     14 C         142.4831  142.1289  165.1750 C.2     1  UNL1        0.2348
     15 C         142.6412  142.1447  166.6666 C.2     1  UNL1        0.0869
     16 C         141.4821  142.5245  167.5397 C.2     1  UNL1        0.1468
     17 C         140.1649  142.8883  166.9212 C.2     1  UNL1        0.0200
     18 C         140.0068  142.8724  165.4296 C.3     1  UNL1        0.1068
     19 C         141.1658  142.4927  164.5565 C.2     1  UNL1        0.2176
     20 N         141.3085  142.3879  163.0670 N.2     1  UNL1       -0.0389
     21 O         141.6402  142.5404  169.0312 O.2     1  UNL1       -0.4047
     22 C         140.4564  142.8237  169.9079 C.3     1  UNL1        0.5753
     23 F         139.2727  143.1069  170.7846 F       1  UNL1       -0.1328
     24 F         140.0849  141.3708  169.8757 F       1  UNL1       -0.1328
     25 F         140.8279  144.2765  169.9401 F       1  UNL1       -0.1328
     26 C         146.3836  142.2631  155.4538 C.ar    1  UNL1        0.0571
     27 C         147.8338  141.9285  155.2673 C.ar    1  UNL1        0.0150
     28 C         148.6143  142.5680  154.1574 C.ar    1  UNL1        0.0013
     29 C         147.9446  143.5421  153.2340 C.ar    1  UNL1        0.0001
     30 C         146.4943  143.8767  153.4205 C.ar    1  UNL1        0.0013
     31 C         145.7139  143.2372  154.5305 C.ar    1  UNL1        0.0150
@<TRIPOS>BOND
     1     1     2    2
     2     2     3    1
     3     3     4    1
     4     4     5    1
     5     5     6    1
     6     6     7    1
     7     7    12    1
     8    12    13    2
     9    13    14    1
    10    14    15    2
    11    15    16    1
    12    16    21    1
    13    21    22    1
    14    22    23    1
    15    22    24    1
    16    22    25    1
    17    16    17    2
    18    17    18    1
    19    18    19    1
    20    19    20    2
    21     7     8    1
    22     8     9    1
    23     4    10    1
    24    10    11    1
    25    11    26    1
    26    26    27   ar
    27    27    28   ar
    28    28    29   ar
    29    29    30   ar
    30    30    31   ar
    31    11     2   am
    32    31    26   ar
    33     9     4    1
    34    20    12    1
    35    19    14    1
@<TRIPOS>MOLECULE
*****
 31 35 0 0 0
SMALL
GASTEIGER

@<TRIPOS>ATOM
      1 O         142.6225  139.5849  166.1388 O.2     1  UNL1       -0.2258
      2 C         142.2927  140.8854  165.4682 C.2     1  UNL1        0.4086
      3 O         142.1680  141.1085  163.9900 O.3     1  UNL1       -0.4398
      4 C         141.8279  142.5523  163.7662 C.3     1  UNL1        0.1561
      5 C         141.9473  141.7508  162.5040 C.3     1  UNL1        0.0425
      6 C         141.7307  142.4097  161.1740 C.3     1  UNL1        0.0160
      7 C         141.3947  143.8700  161.1062 C.3     1  UNL1        0.1122
      8 C         141.2753  144.6715  162.3685 C.3     1  UNL1        0.0160
      9 C         141.4920  144.0126  163.6985 C.3     1  UNL1        0.0425
     10 C         141.7426  143.2214  165.1061 C.3     1  UNL1        0.1414
     11 N         142.0298  142.1913  166.1579 N.am    1  UNL1       -0.2215
     12 C         141.1781  144.5289  159.7761 C.2     1  UNL1        0.3506
     13 N         140.0586  145.4643  159.4275 N.2     1  UNL1       -0.0350
     14 C         140.2316  145.8815  157.9971 C.2     1  UNL1        0.2348
     15 C         139.4308  146.7908  157.1129 C.2     1  UNL1        0.0869
     16 C         139.8565  147.0226  155.6933 C.2     1  UNL1        0.1468
     17 C         141.0830  146.3450  155.1580 C.2     1  UNL1        0.0200
     18 C         141.8838  145.4357  156.0422 C.3     1  UNL1        0.1068
     19 C         141.4582  145.2039  157.4617 C.2     1  UNL1        0.2176
     20 N         142.0431  144.3679  158.5612 N.2     1  UNL1       -0.0389
     21 O         139.0557  147.9319  154.8091 O.2     1  UNL1       -0.4047
     22 C         139.2648  149.4159  154.8737 C.3     1  UNL1        0.5753
     23 F         139.4738  150.8999  154.9382 F       1  UNL1       -0.1328
     24 F         140.4307  149.2924  153.9381 F       1  UNL1       -0.1328
     25 F         138.0989  149.5395  155.8093 F       1  UNL1       -0.1328
     26 C         142.0505  142.4258  167.6392 C.ar    1  UNL1        0.0571
     27 C         140.8071  142.8811  168.3439 C.ar    1  UNL1        0.0150
     28 C         140.8278  143.1156  169.8253 C.ar    1  UNL1        0.0013
     29 C         142.0919  142.8949  170.6020 C.ar    1  UNL1        0.0001
     30 C         143.3354  142.4397  169.8973 C.ar    1  UNL1        0.0013
     31 C         143.3146  142.2051  168.4159 C.ar    1  UNL1        0.0150
@<TRIPOS>BOND
     1     1     2    2
     2     2     3    1
     3     3     4    1
     4     4     5    1
     5     5     6    1
     6     6     7    1
     7     7    12    1
     8    12    13    2
     9    13    14    1
    10    14    15    2
    11    15    16    1
    12    16    21    1
    13    21    22    1
    14    22    23    1
    15    22    24    1
    16    22    25    1
    17    16    17    2
    18    17    18    1
    19    18    19    1
    20    19    20    2
    21     7     8    1
    22     8     9    1
    23     4    10    1
    24    10    11    1
    25    11    26    1
    26    26    27   ar
    27    27    28   ar
    28    28    29   ar
    29    29    30   ar
    30    30    31   ar
    31    11     2   am
    32    31    26   ar
    33     9     4    1
    34    20    12    1
    35    19    14    1
@<TRIPOS>MOLECULE
*****
 31 35 0 0 0
SMALL
GASTEIGER

@<TRIPOS>ATOM
      1 O         138.0196  139.2562  165.9897 O.2     1  UNL1       -0.2258
      2 C         139.2169  139.9206  165.3774 C.2     1  UNL1        0.4086
      3 O         139.6881  139.7580  163.9626 O.3     1  UNL1       -0.4398
      4 C         140.9157  140.6011  163.7831 C.3     1  UNL1        0.1561
      5 C         140.5047  139.8517  162.5504 C.3     1  UNL1        0.0425
      6 C         141.3044  139.9874  161.2887 C.3     1  UNL1        0.0160
      7 C         142.5151  140.8724  161.2596 C.3     1  UNL1        0.1122
      8 C         142.9262  141.6218  162.4922 C.3     1  UNL1        0.0160
      9 C         142.1264  141.4862  163.7540 C.3     1  UNL1        0.0425
     10 C         141.2031  141.2848  165.0870 C.3     1  UNL1        0.1414
     11 N         140.1532  140.8642  166.0723 N.am    1  UNL1       -0.2215
     12 C         143.3148  141.0081  159.9978 C.2     1  UNL1        0.3506
     13 N         144.3623  142.0466  159.7251 N.2     1  UNL1       -0.0350
     14 C         144.9023  141.8093  158.3459 C.2     1  UNL1        0.2348
     15 C         145.9516  142.5193  157.5430 C.2     1  UNL1        0.0869
     16 C         146.2873  142.0441  156.1604 C.2     1  UNL1        0.1468
     17 C         145.5737  140.8590  155.5808 C.2     1  UNL1        0.0200
     18 C         144.5243  140.1490  156.3837 C.3     1  UNL1        0.1068
     19 C         144.1886  140.6241  157.7662 C.2     1  UNL1        0.2176
     20 N         143.2075  140.1289  158.7871 N.2     1  UNL1       -0.0389
     21 O         147.3367  142.7541  155.3575 O.2     1  UNL1       -0.4047
     22 C         148.6201  142.0564  155.0166 C.3     1  UNL1        0.5753
     23 F         149.9034  141.3586  154.6758 F       1  UNL1       -0.1328
     24 F         148.1980  141.9823  153.5792 F       1  UNL1       -0.1328
     25 F         149.0422  142.1305  156.4541 F       1  UNL1       -0.1328
     26 C         140.0566  141.3091  167.5014 C.ar    1  UNL1        0.0571
     27 C         139.5677  140.3567  168.5520 C.ar    1  UNL1        0.0150
     28 C         139.4711  140.8016  169.9813 C.ar    1  UNL1        0.0013
     29 C         139.8634  142.1990  170.3599 C.ar    1  UNL1        0.0001
     30 C         140.3524  143.1516  169.3093 C.ar    1  UNL1        0.0013
     31 C         140.4489  142.7065  167.8801 C.ar    1  UNL1        0.0150
@<TRIPOS>BOND
     1     1     2    2
     2     2     3    1
     3     3     4    1
     4     4     5    1
     5     5     6    1
     6     6     7    1
     7     7    12    1
     8    12    13    2
     9    13    14    1
    10    14    15    2
    11    15    16    1
    12    16    21    1
    13    21    22    1
    14    22    23    1
    15    22    24    1
    16    22    25    1
    17    16    17    2
    18    17    18    1
    19    18    19    1
    20    19    20    2
    21     7     8    1
    22     8     9    1
    23     4    10    1
    24    10    11    1
    25    11    26    1
    26    26    27   ar
    27    27    28   ar
    28    28    29   ar
    29    29    30   ar
    30    30    31   ar
    31    11     2   am
    32    31    26   ar
    33     9     4    1
    34    20    12    1
    35    19    14    1
@<TRIPOS>MOLECULE
*****
 31 35 0 0 0
SMALL
GASTEIGER

@<TRIPOS>ATOM
      1 O         140.1896  146.6350  155.9395 O.2     1  UNL1       -0.2258
      2 C         140.0033  145.5857  156.9951 C.2     1  UNL1        0.4086
      3 O         140.5539  145.6306  158.3898 O.3     1  UNL1       -0.4398
      4 C         140.1246  144.3799  159.0981 C.3     1  UNL1        0.1561
      5 C         140.9555  145.3029  159.9393 C.3     1  UNL1        0.0425
      6 C         141.2843  144.9347  161.3557 C.3     1  UNL1        0.0160
      7 C         140.7823  143.6436  161.9309 C.3     1  UNL1        0.1122
      8 C         139.9514  142.7206  161.0897 C.3     1  UNL1        0.0160
      9 C         139.6226  143.0888  159.6733 C.3     1  UNL1        0.0425
     10 C         139.3087  143.5622  158.1412 C.3     1  UNL1        0.1414
     11 N         139.2338  144.3073  156.8415 N.am    1  UNL1       -0.2215
     12 C         141.1112  143.2754  163.3474 C.2     1  UNL1        0.3506
     13 N         140.1207  143.0127  164.4428 N.2     1  UNL1       -0.0350
     14 C         140.8856  142.6802  165.6895 C.2     1  UNL1        0.2348
     15 C         140.4388  142.3328  167.0786 C.2     1  UNL1        0.0869
     16 C         141.4554  142.0426  168.1429 C.2     1  UNL1        0.1468
     17 C         142.9186  142.0998  167.8179 C.2     1  UNL1        0.0200
     18 C         143.3654  142.4472  166.4288 C.3     1  UNL1        0.1068
     19 C         142.3490  142.7374  165.3646 C.2     1  UNL1        0.2176
     20 N         142.4883  143.1052  163.9171 N.2     1  UNL1       -0.0389
     21 O         141.0086  141.6951  169.5320 O.2     1  UNL1       -0.4047
     22 C         140.1236  142.6375  170.2929 C.3     1  UNL1        0.5753
     23 F         139.2386  143.5797  171.0537 F       1  UNL1       -0.1328
     24 F         139.0420  141.5985  170.3214 F       1  UNL1       -0.1328
     25 F         141.2051  143.6764  170.2643 F       1  UNL1       -0.1328
     26 C         138.5154  143.8538  155.6054 C.ar    1  UNL1        0.0571
     27 C         139.2292  143.8382  154.2862 C.ar    1  UNL1        0.0150
     28 C         138.5108  143.3847  153.0500 C.ar    1  UNL1        0.0013
     29 C         137.0786  142.9467  153.1330 C.ar    1  UNL1        0.0001
     30 C         136.3647  142.9623  154.4522 C.ar    1  UNL1        0.0013
     31 C         137.0832  143.4159  155.6883 C.ar    1  UNL1        0.0150
@<TRIPOS>BOND
     1     1     2    2
     2     2     3    1
     3     3     4    1
     4     4     5    1
     5     5     6    1
     6     6     7    1
     7     7    12    1
     8    12    13    2
     9    13    14    1
    10    14    15    2
    11    15    16    1
    12    16    21    1
    13    21    22    1
    14    22    23    1
    15    22    24    1
    16    22    25    1
    17    16    17    2
    18    17    18    1
    19    18    19    1
    20    19    20    2
    21     7     8    1
    22     8     9    1
    23     4    10    1
    24    10    11    1
    25    11    26    1
    26    26    27   ar
    27    27    28   ar
    28    28    29   ar
    29    29    30   ar
    30    30    31   ar
    31    11     2   am
    32    31    26   ar
    33     9     4    1
    34    20    12    1
    35    19    14    1
