@<TRIPOS>MOLECULE
*****
 23 25 0 0 0
SMALL
GASTEIGER

@<TRIPOS>ATOM
      1 C         140.6986  140.3489  166.2163 C.ar    1  UNL1        0.0206
      2 C         141.1576  138.9495  165.9322 C.ar    1  UNL1        0.0989
      3 N         140.5733  138.1880  164.7796 N.ar    1  UNL1       -0.2423
      4 C         139.5301  138.8260  163.9109 C.ar    1  UNL1        0.0985
      5 C         138.7782  138.3257  162.7131 C.ar    1  UNL1        0.0392
      6 C         137.8546  139.4160  162.2570 C.ar    1  UNL1        0.0779
      7 N         138.0356  140.5901  163.1728 N.ar    1  UNL1       -0.3165
      8 C         139.0711  140.2255  164.1949 C.ar    1  UNL1        0.0782
      9 C         139.6554  140.9870  165.3476 C.ar    1  UNL1        0.0203
     10 C         140.2837  144.0567  169.8330 C.3     1  UNL1        0.0319
     11 C         141.0754  142.9644  169.1774 C.ar    1  UNL1       -0.0113
     12 C         140.4911  142.2028  168.0246 C.ar    1  UNL1       -0.0034
     13 C         141.2829  141.1105  167.3690 C.ar    1  UNL1        0.0013
     14 C         142.6589  140.7796  167.8661 C.ar    1  UNL1        0.0009
     15 C         143.2432  141.5411  169.0188 C.ar    1  UNL1        0.0111
     16 C         142.4514  142.6335  169.6745 C.ar    1  UNL1        0.0537
     17 CL        143.0357  143.3950  170.8271 Cl      1  UNL1       -0.0826
     18 C         137.3087  141.8991  163.0823 C.3     1  UNL1        0.1920
     19 C         137.9448  143.0634  162.3824 C.2     1  UNL1        0.2488
     20 O         138.1091  143.0437  160.8916 O.2     1  UNL1       -0.2728
     21 N         138.4165  144.2474  163.1733 N.am    1  UNL1       -0.2744
     22 C         139.0526  145.4117  162.4733 C.3     1  UNL1        0.1150
     23 C         138.2523  144.2672  164.6641 C.3     1  UNL1        0.1150
@<TRIPOS>BOND
     1    10    11    1
     2    11    12   ar
     3    12    13   ar
     4    13     1    1
     5     1     2   ar
     6     2     3   ar
     7     3     4   ar
     8     4     5   ar
     9     5     6   ar
    10     6     7   ar
    11     7    18    1
    12    18    19    1
    13    19    20    2
    14    19    21   am
    15    21    22    1
    16    21    23    1
    17     7     8   ar
    18     8     9   ar
    19    13    14   ar
    20    14    15   ar
    21    15    16   ar
    22    16    17    1
    23    16    11   ar
    24     9     1   ar
    25     8     4   ar
@<TRIPOS>MOLECULE
*****
 23 25 0 0 0
SMALL
GASTEIGER

@<TRIPOS>ATOM
      1 C         139.5358  139.9929  165.9603 C.ar    1  UNL1        0.0206
      2 C         139.5504  138.5490  165.5541 C.ar    1  UNL1        0.0989
      3 N         139.0296  138.1435  164.2072 N.ar    1  UNL1       -0.2423
      4 C         138.4941  139.1819  163.2664 C.ar    1  UNL1        0.0985
      5 C         137.9186  139.0831  161.8847 C.ar    1  UNL1        0.0392
      6 C         137.5483  140.4660  161.4370 C.ar    1  UNL1        0.0779
      7 N         137.8949  141.4194  162.5419 N.ar    1  UNL1       -0.3165
      8 C         138.4795  140.6257  163.6726 C.ar    1  UNL1        0.0782
      9 C         139.0003  141.0312  165.0195 C.ar    1  UNL1        0.0203
     10 C         143.1725  142.2934  168.8728 C.3     1  UNL1        0.0319
     11 C         141.8750  141.5487  168.7635 C.ar    1  UNL1       -0.0113
     12 C         141.3541  141.1431  167.4165 C.ar    1  UNL1       -0.0034
     13 C         140.0567  140.3984  167.3073 C.ar    1  UNL1        0.0013
     14 C         139.2800  140.0593  168.5449 C.ar    1  UNL1        0.0009
     15 C         139.8008  140.4648  169.8918 C.ar    1  UNL1        0.0111
     16 C         141.0983  141.2096  170.0012 C.ar    1  UNL1        0.0537
     17 CL        141.6191  141.6151  171.3481 Cl      1  UNL1       -0.0826
     18 C         137.6925  142.9055  162.5201 C.3     1  UNL1        0.1920
     19 C         138.7823  143.8035  162.0141 C.2     1  UNL1        0.2488
     20 O         139.1588  143.7814  160.5623 O.2     1  UNL1       -0.2728
     21 N         139.4957  144.7235  162.9600 N.am    1  UNL1       -0.2744
     22 C         140.5855  145.6215  162.4541 C.3     1  UNL1        0.1150
     23 C         139.1193  144.7456  164.4118 C.3     1  UNL1        0.1150
@<TRIPOS>BOND
     1    10    11    1
     2    11    12   ar
     3    12    13   ar
     4    13     1    1
     5     1     2   ar
     6     2     3   ar
     7     3     4   ar
     8     4     5   ar
     9     5     6   ar
    10     6     7   ar
    11     7    18    1
    12    18    19    1
    13    19    20    2
    14    19    21   am
    15    21    22    1
    16    21    23    1
    17     7     8   ar
    18     8     9   ar
    19    13    14   ar
    20    14    15   ar
    21    15    16   ar
    22    16    17    1
    23    16    11   ar
    24     9     1   ar
    25     8     4   ar
@<TRIPOS>MOLECULE
*****
 23 25 0 0 0
SMALL
GASTEIGER

@<TRIPOS>ATOM
      1 C         139.8132  143.1946  164.0737 C.ar    1  UNL1        0.0206
      2 C         138.6924  144.1493  163.7872 C.ar    1  UNL1        0.0989
      3 N         138.7028  144.9613  162.5260 N.ar    1  UNL1       -0.2423
      4 C         139.8341  144.8185  161.5514 C.ar    1  UNL1        0.0985
      5 C         140.1146  145.4811  160.2352 C.ar    1  UNL1        0.0392
      6 C         141.4088  144.9358  159.7083 C.ar    1  UNL1        0.0779
      7 N         141.9281  143.9363  160.6989 N.ar    1  UNL1       -0.3165
      8 C         140.9549  143.8638  161.8380 C.ar    1  UNL1        0.0782
      9 C         140.9445  143.0518  163.0991 C.ar    1  UNL1        0.0203
     10 C         138.3367  138.9487  166.6801 C.3     1  UNL1        0.0319
     11 C         139.0646  140.2596  166.6381 C.ar    1  UNL1       -0.0113
     12 C         139.0749  141.0716  165.3769 C.ar    1  UNL1       -0.0034
     13 C         139.8028  142.3825  165.3349 C.ar    1  UNL1        0.0013
     14 C         140.5203  142.8814  166.5540 C.ar    1  UNL1        0.0009
     15 C         140.5100  142.0694  167.8152 C.ar    1  UNL1        0.0111
     16 C         139.7821  140.7584  167.8572 C.ar    1  UNL1        0.0537
     17 CL        139.7717  139.9465  169.1184 Cl      1  UNL1       -0.0826
     18 C         143.1978  143.1476  160.5725 C.3     1  UNL1        0.1920
     19 C         144.1790  143.1190  161.7067 C.2     1  UNL1        0.2488
     20 O         144.6078  144.3994  162.3600 O.2     1  UNL1       -0.2728
     21 N         144.7314  141.8101  162.1877 N.am    1  UNL1       -0.2744
     22 C         145.7126  141.7815  163.3220 C.3     1  UNL1        0.1150
     23 C         144.3027  140.5296  161.5346 C.3     1  UNL1        0.1150
@<TRIPOS>BOND
     1    10    11    1
     2    11    12   ar
     3    12    13   ar
     4    13     1    1
     5     1     2   ar
     6     2     3   ar
     7     3     4   ar
     8     4     5   ar
     9     5     6   ar
    10     6     7   ar
    11     7    18    1
    12    18    19    1
    13    19    20    2
    14    19    21   am
    15    21    22    1
    16    21    23    1
    17     7     8   ar
    18     8     9   ar
    19    13    14   ar
    20    14    15   ar
    21    15    16   ar
    22    16    17    1
    23    16    11   ar
    24     9     1   ar
    25     8     4   ar
@<TRIPOS>MOLECULE
*****
 23 25 0 0 0
SMALL
GASTEIGER

@<TRIPOS>ATOM
      1 C         140.1113  143.1891  165.3797 C.ar    1  UNL1        0.0206
      2 C         139.0413  144.2402  165.3862 C.ar    1  UNL1        0.0989
      3 N         138.8593  145.1326  164.1944 N.ar    1  UNL1       -0.2423
      4 C         139.7473  144.9738  162.9960 C.ar    1  UNL1        0.0985
      5 C         139.8043  145.7015  161.6855 C.ar    1  UNL1        0.0392
      6 C         140.9096  145.1000  160.8691 C.ar    1  UNL1        0.0779
      7 N         141.5356  144.0007  161.6749 N.ar    1  UNL1       -0.3165
      8 C         140.8173  143.9226  162.9894 C.ar    1  UNL1        0.0782
      9 C         140.9993  143.0303  164.1813 C.ar    1  UNL1        0.0203
     10 C         141.3310  142.5686  170.3924 C.3     1  UNL1        0.0319
     11 C         140.9031  141.9864  169.0779 C.ar    1  UNL1       -0.0113
     12 C         140.7211  142.8788  167.8861 C.ar    1  UNL1       -0.0034
     13 C         140.2933  142.2966  166.5716 C.ar    1  UNL1        0.0013
     14 C         140.0475  140.8220  166.4488 C.ar    1  UNL1        0.0009
     15 C         140.2295  139.9296  167.6406 C.ar    1  UNL1        0.0111
     16 C         140.6573  140.5118  168.9552 C.ar    1  UNL1        0.0537
     17 CL        140.8393  139.6193  170.1470 Cl      1  UNL1       -0.0826
     18 C         142.6792  143.1318  161.2423 C.3     1  UNL1        0.1920
     19 C         143.9423  143.0970  162.0506 C.2     1  UNL1        0.2488
     20 O         144.6504  144.3747  162.3909 O.2     1  UNL1       -0.2728
     21 N         144.4973  141.7844  162.5186 N.am    1  UNL1       -0.2744
     22 C         145.7604  141.7495  163.3269 C.3     1  UNL1        0.1150
     23 C         143.7893  140.5066  162.1783 C.3     1  UNL1        0.1150
@<TRIPOS>BOND
     1    10    11    1
     2    11    12   ar
     3    12    13   ar
     4    13     1    1
     5     1     2   ar
     6     2     3   ar
     7     3     4   ar
     8     4     5   ar
     9     5     6   ar
    10     6     7   ar
    11     7    18    1
    12    18    19    1
    13    19    20    2
    14    19    21   am
    15    21    22    1
    16    21    23    1
    17     7     8   ar
    18     8     9   ar
    19    13    14   ar
    20    14    15   ar
    21    15    16   ar
    22    16    17    1
    23    16    11   ar
    24     9     1   ar
    25     8     4   ar
@<TRIPOS>MOLECULE
*****
 23 25 0 0 0
SMALL
GASTEIGER

@<TRIPOS>ATOM
      1 C         141.6356  140.0614  165.8355 C.ar    1  UNL1        0.0206
      2 C         141.0585  138.7368  165.4326 C.ar    1  UNL1        0.0989
      3 N         141.5523  138.0491  164.1943 N.ar    1  UNL1       -0.2423
      4 C         142.6231  138.6859  163.3590 C.ar    1  UNL1        0.0985
      5 C         143.3038  138.2486  162.0959 C.ar    1  UNL1        0.0392
      6 C         144.3016  139.3030  161.7182 C.ar    1  UNL1        0.0779
      7 N         144.2375  140.3919  162.7478 N.ar    1  UNL1       -0.3165
      8 C         143.2001  140.0105  163.7619 C.ar    1  UNL1        0.0782
      9 C         142.7064  140.6983  165.0001 C.ar    1  UNL1        0.0203
     10 C         138.5481  140.1363  170.0142 C.3     1  UNL1        0.0319
     11 C         139.5981  140.7866  169.1631 C.ar    1  UNL1       -0.0113
     12 C         140.0918  140.0988  167.9248 C.ar    1  UNL1       -0.0034
     13 C         141.1419  140.7492  167.0737 C.ar    1  UNL1        0.0013
     14 C         141.6982  142.0873  167.4608 C.ar    1  UNL1        0.0009
     15 C         141.2046  142.7751  168.6990 C.ar    1  UNL1        0.0111
     16 C         140.1545  142.1248  169.5502 C.ar    1  UNL1        0.0537
     17 CL        139.6608  142.8126  170.7884 Cl      1  UNL1       -0.0826
     18 C         145.0655  141.6426  162.7611 C.3     1  UNL1        0.1920
     19 C         144.4091  142.9786  162.5759 C.2     1  UNL1        0.2488
     20 O         143.9717  143.4164  161.2095 O.2     1  UNL1       -0.2728
     21 N         144.1900  143.8768  163.7571 N.am    1  UNL1       -0.2744
     22 C         143.5336  145.2128  163.5719 C.3     1  UNL1        0.1150
     23 C         144.6274  143.4391  165.1235 C.3     1  UNL1        0.1150
@<TRIPOS>BOND
     1    10    11    1
     2    11    12   ar
     3    12    13   ar
     4    13     1    1
     5     1     2   ar
     6     2     3   ar
     7     3     4   ar
     8     4     5   ar
     9     5     6   ar
    10     6     7   ar
    11     7    18    1
    12    18    19    1
    13    19    20    2
    14    19    21   am
    15    21    22    1
    16    21    23    1
    17     7     8   ar
    18     8     9   ar
    19    13    14   ar
    20    14    15   ar
    21    15    16   ar
    22    16    17    1
    23    16    11   ar
    24     9     1   ar
    25     8     4   ar
@<TRIPOS>MOLECULE
*****
 23 25 0 0 0
SMALL
GASTEIGER

@<TRIPOS>ATOM
      1 C         140.4025  140.0870  166.4614 C.ar    1  UNL1        0.0206
      2 C         139.1818  139.2765  166.7822 C.ar    1  UNL1        0.0989
      3 N         138.5174  138.4649  165.7099 N.ar    1  UNL1       -0.2423
      4 C         139.0737  138.4638  164.3169 C.ar    1  UNL1        0.0985
      5 C         138.6370  137.7669  163.0623 C.ar    1  UNL1        0.0392
      6 C         139.5879  138.1468  161.9662 C.ar    1  UNL1        0.0779
      7 N         140.6122  139.0784  162.5433 N.ar    1  UNL1       -0.3165
      8 C         140.2944  139.2743  163.9961 C.ar    1  UNL1        0.0782
      9 C         140.9588  140.0859  165.0684 C.ar    1  UNL1        0.0203
     10 C         140.3009  144.0523  169.8181 C.3     1  UNL1        0.0319
     11 C         141.0162  142.8814  169.2120 C.ar    1  UNL1       -0.0113
     12 C         140.3517  142.0697  168.1397 C.ar    1  UNL1       -0.0034
     13 C         141.0669  140.8987  167.5337 C.ar    1  UNL1        0.0013
     14 C         142.4466  140.5394  167.9999 C.ar    1  UNL1        0.0009
     15 C         143.1111  141.3511  169.0721 C.ar    1  UNL1        0.0111
     16 C         142.3959  142.5221  169.6782 C.ar    1  UNL1        0.0537
     17 CL        143.0603  143.3337  170.7504 Cl      1  UNL1       -0.0826
     18 C         141.7539  139.7043  161.7985 C.3     1  UNL1        0.1920
     19 C         143.1420  139.6418  162.3633 C.2     1  UNL1        0.2488
     20 O         143.8767  138.3348  162.4050 O.2     1  UNL1       -0.2728
     21 N         143.7955  140.8865  162.8865 N.am    1  UNL1       -0.2744
     22 C         145.1837  140.8241  163.4514 C.3     1  UNL1        0.1150
     23 C         143.0610  142.1936  162.8449 C.3     1  UNL1        0.1150
@<TRIPOS>BOND
     1    10    11    1
     2    11    12   ar
     3    12    13   ar
     4    13     1    1
     5     1     2   ar
     6     2     3   ar
     7     3     4   ar
     8     4     5   ar
     9     5     6   ar
    10     6     7   ar
    11     7    18    1
    12    18    19    1
    13    19    20    2
    14    19    21   am
    15    21    22    1
    16    21    23    1
    17     7     8   ar
    18     8     9   ar
    19    13    14   ar
    20    14    15   ar
    21    15    16   ar
    22    16    17    1
    23    16    11   ar
    24     9     1   ar
    25     8     4   ar
@<TRIPOS>MOLECULE
*****
 23 25 0 0 0
SMALL
GASTEIGER

@<TRIPOS>ATOM
      1 C         142.9024  140.4210  165.7412 C.ar    1  UNL1        0.0206
      2 C         143.2732  139.0571  165.2390 C.ar    1  UNL1        0.0989
      3 N         143.7638  138.8837  163.8322 N.ar    1  UNL1       -0.2423
      4 C         143.8837  140.0742  162.9276 C.ar    1  UNL1        0.0985
      5 C         144.3335  140.2111  161.5031 C.ar    1  UNL1        0.0392
      6 C         144.2408  141.6596  161.1250 C.ar    1  UNL1        0.0779
      7 N         143.7336  142.4180  162.3157 N.ar    1  UNL1       -0.3165
      8 C         143.5129  141.4381  163.4297 C.ar    1  UNL1        0.0782
      9 C         143.0223  141.6115  164.8365 C.ar    1  UNL1        0.0203
     10 C         140.5582  143.3148  169.3649 C.3     1  UNL1        0.0319
     11 C         141.2396  142.0414  168.9599 C.ar    1  UNL1       -0.0113
     12 C         141.7303  141.8679  167.5530 C.ar    1  UNL1       -0.0034
     13 C         142.4117  140.5945  167.1481 C.ar    1  UNL1        0.0013
     14 C         142.6025  139.4946  168.1499 C.ar    1  UNL1        0.0009
     15 C         142.1119  139.6680  169.5567 C.ar    1  UNL1        0.0111
     16 C         141.4304  140.9415  169.9617 C.ar    1  UNL1        0.0537
     17 CL        140.9398  141.1149  171.3685 Cl      1  UNL1       -0.0826
     18 C         143.4899  143.8966  162.3809 C.3     1  UNL1        0.1920
     19 C         142.2788  144.4869  161.7215 C.2     1  UNL1        0.2488
     20 O         142.2233  144.6100  160.2276 O.2     1  UNL1       -0.2728
     21 N         141.1232  144.9541  162.5559 N.am    1  UNL1       -0.2744
     22 C         139.9121  145.5444  161.8965 C.3     1  UNL1        0.1150
     23 C         141.1786  144.8310  164.0498 C.3     1  UNL1        0.1150
@<TRIPOS>BOND
     1    10    11    1
     2    11    12   ar
     3    12    13   ar
     4    13     1    1
     5     1     2   ar
     6     2     3   ar
     7     3     4   ar
     8     4     5   ar
     9     5     6   ar
    10     6     7   ar
    11     7    18    1
    12    18    19    1
    13    19    20    2
    14    19    21   am
    15    21    22    1
    16    21    23    1
    17     7     8   ar
    18     8     9   ar
    19    13    14   ar
    20    14    15   ar
    21    15    16   ar
    22    16    17    1
    23    16    11   ar
    24     9     1   ar
    25     8     4   ar
@<TRIPOS>MOLECULE
*****
 23 25 0 0 0
SMALL
GASTEIGER

@<TRIPOS>ATOM
      1 C         143.0080  141.2907  165.8221 C.ar    1  UNL1        0.0206
      2 C         143.7062  142.5388  165.3696 C.ar    1  UNL1        0.0989
      3 N         144.2405  142.6342  163.9713 N.ar    1  UNL1       -0.2423
      4 C         144.0767  141.4816  163.0255 C.ar    1  UNL1        0.0985
      5 C         144.4959  141.2868  161.5984 C.ar    1  UNL1        0.0392
      6 C         144.0568  139.9183  161.1690 C.ar    1  UNL1        0.0779
      7 N         143.3663  139.2673  162.3306 N.ar    1  UNL1       -0.3165
      8 C         143.3785  140.2335  163.4780 C.ar    1  UNL1        0.0782
      9 C         142.8442  140.1380  164.8763 C.ar    1  UNL1        0.0203
     10 C         140.5436  143.4498  169.8551 C.3     1  UNL1        0.0319
     11 C         141.2414  142.2747  169.2370 C.ar    1  UNL1       -0.0113
     12 C         141.7758  142.3702  167.8386 C.ar    1  UNL1       -0.0034
     13 C         142.4737  141.1952  167.2205 C.ar    1  UNL1        0.0013
     14 C         142.6373  139.9245  168.0007 C.ar    1  UNL1        0.0009
     15 C         142.1029  139.8290  169.3990 C.ar    1  UNL1        0.0111
     16 C         141.4050  141.0041  170.0172 C.ar    1  UNL1        0.0537
     17 CL        140.8707  140.9086  171.4155 Cl      1  UNL1       -0.0826
     18 C         142.7684  137.8917  162.3428 C.3     1  UNL1        0.1920
     19 C         141.3936  137.6763  162.9028 C.2     1  UNL1        0.2488
     20 O         141.2257  137.1262  164.2881 O.2     1  UNL1       -0.2728
     21 N         140.1867  138.0111  162.0774 N.am    1  UNL1       -0.2744
     22 C         138.8119  137.7958  162.6373 C.3     1  UNL1        0.1150
     23 C         140.3545  138.5613  160.6921 C.3     1  UNL1        0.1150
@<TRIPOS>BOND
     1    10    11    1
     2    11    12   ar
     3    12    13   ar
     4    13     1    1
     5     1     2   ar
     6     2     3   ar
     7     3     4   ar
     8     4     5   ar
     9     5     6   ar
    10     6     7   ar
    11     7    18    1
    12    18    19    1
    13    19    20    2
    14    19    21   am
    15    21    22    1
    16    21    23    1
    17     7     8   ar
    18     8     9   ar
    19    13    14   ar
    20    14    15   ar
    21    15    16   ar
    22    16    17    1
    23    16    11   ar
    24     9     1   ar
    25     8     4   ar
@<TRIPOS>MOLECULE
*****
 23 25 0 0 0
SMALL
GASTEIGER

@<TRIPOS>ATOM
      1 C         141.3900  138.8852  163.6840 C.ar    1  UNL1        0.0206
      2 C         142.2548  137.9887  162.8484 C.ar    1  UNL1        0.0989
      3 N         141.9620  137.8127  161.3879 N.ar    1  UNL1       -0.2423
      4 C         140.8043  138.5333  160.7629 C.ar    1  UNL1        0.0985
      5 C         140.2751  138.5553  159.3595 C.ar    1  UNL1        0.0392
      6 C         139.0832  139.4654  159.3278 C.ar    1  UNL1        0.0779
      7 N         138.8758  140.0059  160.7116 N.ar    1  UNL1       -0.3165
      8 C         139.9395  139.4298  161.5985 C.ar    1  UNL1        0.0782
      9 C         140.2323  139.6058  163.0591 C.ar    1  UNL1        0.0203
     10 C         139.9697  140.5805  168.3861 C.3     1  UNL1        0.0319
     11 C         140.9727  139.9088  167.4957 C.ar    1  UNL1       -0.0113
     12 C         140.6799  139.7328  166.0350 C.ar    1  UNL1       -0.0034
     13 C         141.6829  139.0612  165.1446 C.ar    1  UNL1        0.0013
     14 C         142.9787  138.5655  165.7148 C.ar    1  UNL1        0.0009
     15 C         143.2716  138.7415  167.1753 C.ar    1  UNL1        0.0111
     16 C         142.2686  139.4131  168.0658 C.ar    1  UNL1        0.0537
     17 CL        142.5614  139.5891  169.5264 Cl      1  UNL1       -0.0826
     18 C         137.7945  140.9557  161.1343 C.3     1  UNL1        0.1920
     19 C         138.1082  142.4091  161.3325 C.2     1  UNL1        0.2488
     20 O         138.5200  143.2537  160.1633 O.2     1  UNL1       -0.2728
     21 N         138.0101  143.0179  162.6999 N.am    1  UNL1       -0.2744
     22 C         138.3238  144.4712  162.8981 C.3     1  UNL1        0.1150
     23 C         137.5983  142.1733  163.8691 C.3     1  UNL1        0.1150
@<TRIPOS>BOND
     1    10    11    1
     2    11    12   ar
     3    12    13   ar
     4    13     1    1
     5     1     2   ar
     6     2     3   ar
     7     3     4   ar
     8     4     5   ar
     9     5     6   ar
    10     6     7   ar
    11     7    18    1
    12    18    19    1
    13    19    20    2
    14    19    21   am
    15    21    22    1
    16    21    23    1
    17     7     8   ar
    18     8     9   ar
    19    13    14   ar
    20    14    15   ar
    21    15    16   ar
    22    16    17    1
    23    16    11   ar
    24     9     1   ar
    25     8     4   ar
