@<TRIPOS>MOLECULE
*****
 35 37 0 0 0
SMALL
GASTEIGER

@<TRIPOS>ATOM
      1 C         140.5943  140.0639  170.3204 C.3     1  UNL1        0.1459
      2 O         140.5999  140.3671  171.7894 O.3     1  UNL1       -0.3813
      3 H         141.4796  140.1831  172.1542 H       1  UNL1        0.2105
      4 C         139.3436  140.2665  169.5174 C.3     1  UNL1        0.1204
      5 C         138.4380  139.2288  167.3145 C.2     1  UNL1        0.2460
      6 O         137.4490  138.4210  168.1016 O.2     1  UNL1       -0.2701
      7 N         139.3852  140.1515  168.0225 N.am    1  UNL1       -0.2985
      8 H         140.0343  140.6817  167.5059 H       1  UNL1        0.1498
      9 C         138.1122  140.1628  163.4711 C.ar    1  UNL1        0.1516
     10 C         138.0706  140.2776  164.9661 C.ar    1  UNL1        0.0427
     11 C         138.4796  139.1138  165.8195 C.ar    1  UNL1        0.0565
     12 C         138.9303  137.8351  165.1778 C.ar    1  UNL1        0.0060
     13 C         138.9720  137.7203  163.6828 C.ar    1  UNL1        0.0173
     14 C         138.5629  138.8841  162.8295 C.ar    1  UNL1        0.0760
     15 N         138.6046  138.7691  161.3344 N.pl3   1  UNL1       -0.3546
     16 H         138.9004  137.9299  160.9133 H       1  UNL1        0.1424
     17 H         138.3361  139.5330  160.7743 H       1  UNL1        0.1424
     18 C         137.6086  142.6988  163.2162 C.3     1  UNL1        0.2525
     19 O         137.7031  141.3266  162.6178 O.3     1  UNL1       -0.4702
     20 C         141.8395  139.5581  169.6542 C.3     1  UNL1        0.1034
     21 N         142.3232  140.1955  168.3854 N.3     1  UNL1       -0.2704
     22 C         142.6589  141.6573  168.3611 C.3     1  UNL1        0.0759
     23 C         143.1425  142.2947  167.0923 C.3     1  UNL1        0.0609
     24 C         143.2904  141.4703  165.8479 C.3     1  UNL1        0.1687
     25 C         142.9547  140.0086  165.8723 C.3     1  UNL1        0.0609
     26 C         142.4711  139.3712  167.1410 C.3     1  UNL1        0.0759
     27 O         143.7741  142.1077  164.5791 O.3     1  UNL1       -0.4790
     28 C         142.8765  143.0374  163.8174 C.ar    1  UNL1        0.1393
     29 C         142.8370  144.4956  164.1668 C.ar    1  UNL1        0.0378
     30 C         141.9394  145.4253  163.4050 C.ar    1  UNL1        0.0154
     31 C         141.0815  144.8967  162.2939 C.ar    1  UNL1        0.0684
     32 CL        140.1840  145.8264  161.5322 Cl      1  UNL1       -0.0814
     33 C         141.1211  143.4385  161.9445 C.ar    1  UNL1        0.0712
     34 CL        140.2632  142.9099  160.8334 Cl      1  UNL1       -0.0813
     35 C         142.0186  142.5089  162.7063 C.ar    1  UNL1        0.0491
@<TRIPOS>BOND
     1    18    19    1
     2    19     9    1
     3     9    10   ar
     4    10    11   ar
     5    11     5    1
     6     5     6    2
     7     5     7   am
     8     7     4    1
     9     4     1    1
    10     1     2    1
    11     1    20    1
    12    20    21    1
    13    21    22    1
    14    22    23    1
    15    23    24    1
    16    24    27    1
    17    27    28    1
    18    28    29   ar
    19    29    30   ar
    20    30    31   ar
    21    31    32    1
    22    31    33   ar
    23    33    34    1
    24    33    35   ar
    25    24    25    1
    26    25    26    1
    27    11    12   ar
    28    12    13   ar
    29    13    14   ar
    30    14    15    1
    31    14     9   ar
    32    26    21    1
    33    35    28   ar
    34     7     8    1
    35     2     3    1
    36    15    16    1
    37    15    17    1
@<TRIPOS>MOLECULE
*****
 35 37 0 0 0
SMALL
GASTEIGER

@<TRIPOS>ATOM
      1 C         140.6884  140.0689  170.5252 C.3     1  UNL1        0.1459
      2 O         140.6458  140.3917  171.9894 O.3     1  UNL1       -0.3813
      3 H         141.5382  140.3189  172.3626 H       1  UNL1        0.2105
      4 C         139.4291  140.1097  169.7112 C.3     1  UNL1        0.1204
      5 C         138.5771  139.3596  167.3743 C.2     1  UNL1        0.2460
      6 O         137.5728  138.4585  168.0296 O.2     1  UNL1       -0.2701
      7 N         139.5053  140.1851  168.2151 N.am    1  UNL1       -0.2985
      8 H         140.1644  140.7765  167.7849 H       1  UNL1        0.1498
      9 C         139.4101  138.4193  163.6097 C.ar    1  UNL1        0.1516
     10 C         139.3339  138.3439  165.1058 C.ar    1  UNL1        0.0427
     11 C         138.6533  139.4350  165.8781 C.ar    1  UNL1        0.0565
     12 C         138.0489  140.6015  165.1542 C.ar    1  UNL1        0.0060
     13 C         138.1251  140.6769  163.6581 C.ar    1  UNL1        0.0173
     14 C         138.8057  139.5858  162.8858 C.ar    1  UNL1        0.0760
     15 N         138.8819  139.6612  161.3896 N.pl3   1  UNL1       -0.3546
     16 H         138.4852  140.4269  160.9145 H       1  UNL1        0.1424
     17 H         139.3286  138.9452  160.8827 H       1  UNL1        0.1424
     18 C         141.5275  137.4789  162.4341 C.3     1  UNL1        0.2525
     19 O         140.0907  137.3283  162.8374 O.3     1  UNL1       -0.4702
     20 C         141.9903  139.7052  169.8748 C.3     1  UNL1        0.1034
     21 N         142.3796  140.3367  168.5711 N.3     1  UNL1       -0.2704
     22 C         142.7219  141.7962  168.5174 C.3     1  UNL1        0.0759
     23 C         143.1112  142.4276  167.2136 C.3     1  UNL1        0.0609
     24 C         143.1582  141.5996  165.9637 C.3     1  UNL1        0.1687
     25 C         142.8159  140.1402  166.0175 C.3     1  UNL1        0.0609
     26 C         142.4266  139.5088  167.3212 C.3     1  UNL1        0.0759
     27 O         143.5475  142.2311  164.6600 O.3     1  UNL1       -0.4790
     28 C         142.6173  143.1964  163.9869 C.ar    1  UNL1        0.1393
     29 C         142.9961  143.8096  162.6714 C.ar    1  UNL1        0.0378
     30 C         142.0659  144.7749  161.9983 C.ar    1  UNL1        0.0154
     31 C         140.7570  145.1270  162.6407 C.ar    1  UNL1        0.0684
     32 CL        139.8268  146.0922  161.9677 Cl      1  UNL1       -0.0814
     33 C         140.3782  144.5137  163.9562 C.ar    1  UNL1        0.0712
     34 CL        139.0692  144.8658  164.5986 Cl      1  UNL1       -0.0813
     35 C         141.3084  143.5485  164.6293 C.ar    1  UNL1        0.0491
@<TRIPOS>BOND
     1    18    19    1
     2    19     9    1
     3     9    10   ar
     4    10    11   ar
     5    11     5    1
     6     5     6    2
     7     5     7   am
     8     7     4    1
     9     4     1    1
    10     1     2    1
    11     1    20    1
    12    20    21    1
    13    21    22    1
    14    22    23    1
    15    23    24    1
    16    24    27    1
    17    27    28    1
    18    28    29   ar
    19    29    30   ar
    20    30    31   ar
    21    31    32    1
    22    31    33   ar
    23    33    34    1
    24    33    35   ar
    25    24    25    1
    26    25    26    1
    27    11    12   ar
    28    12    13   ar
    29    13    14   ar
    30    14    15    1
    31    14     9   ar
    32    26    21    1
    33    35    28   ar
    34     7     8    1
    35     2     3    1
    36    15    16    1
    37    15    17    1
@<TRIPOS>MOLECULE
*****
 35 37 0 0 0
SMALL
GASTEIGER

@<TRIPOS>ATOM
      1 C         140.7342  140.0381  169.4795 C.3     1  UNL1        0.1459
      2 O         140.8939  139.2155  170.7235 O.3     1  UNL1       -0.3813
      3 H         141.8043  139.2944  171.0487 H       1  UNL1        0.2105
      4 C         139.4101  140.0855  168.7764 C.3     1  UNL1        0.1204
      5 C         138.4546  139.1346  166.5554 C.2     1  UNL1        0.2460
      6 O         137.6061  138.1722  167.3325 O.2     1  UNL1       -0.2701
      7 N         139.3566  140.0912  167.2774 N.am    1  UNL1       -0.2985
      8 H         139.9135  140.7229  166.7674 H       1  UNL1        0.1498
      9 C         137.9253  140.3862  162.8267 C.ar    1  UNL1        0.1516
     10 C         137.9787  140.3804  164.3257 C.ar    1  UNL1        0.0427
     11 C         138.4011  139.1403  165.0563 C.ar    1  UNL1        0.0565
     12 C         138.7701  137.9061  164.2879 C.ar    1  UNL1        0.0060
     13 C         138.7166  137.9119  162.7889 C.ar    1  UNL1        0.0173
     14 C         138.2942  139.1520  162.0583 C.ar    1  UNL1        0.0760
     15 N         138.2407  139.1578  160.5592 N.pl3   1  UNL1       -0.3546
     16 H         138.4829  138.3477  160.0549 H       1  UNL1        0.1424
     17 H         137.9635  139.9716  160.0797 H       1  UNL1        0.1424
     18 C         137.7019  142.9727  162.7265 C.3     1  UNL1        0.2525
     19 O         137.5029  141.6263  162.0961 O.3     1  UNL1       -0.4702
     20 C         141.8989  140.8134  168.9384 C.3     1  UNL1        0.1034
     21 N         142.5667  140.3752  167.6687 N.3     1  UNL1       -0.2704
     22 C         142.8585  141.3765  166.5906 C.3     1  UNL1        0.0759
     23 C         143.5263  140.9383  165.3209 C.3     1  UNL1        0.0609
     24 C         143.9023  139.4988  165.1294 C.3     1  UNL1        0.1687
     25 C         143.6105  138.4976  166.2075 C.3     1  UNL1        0.0609
     26 C         142.9427  138.9358  167.4772 C.3     1  UNL1        0.0759
     27 O         144.5701  139.0606  163.8598 O.3     1  UNL1       -0.4790
     28 C         143.7912  139.0188  162.5785 C.ar    1  UNL1        0.1393
     29 C         142.6683  138.0378  162.4150 C.ar    1  UNL1        0.0378
     30 C         141.8894  137.9959  161.1337 C.ar    1  UNL1        0.0154
     31 C         142.2335  138.9351  160.0159 C.ar    1  UNL1        0.0684
     32 CL        141.4547  138.8933  158.7347 Cl      1  UNL1       -0.0814
     33 C         143.3564  139.9162  160.1794 C.ar    1  UNL1        0.0712
     34 CL        143.7005  140.8554  159.0616 Cl      1  UNL1       -0.0813
     35 C         144.1352  139.9580  161.4606 C.ar    1  UNL1        0.0491
@<TRIPOS>BOND
     1    18    19    1
     2    19     9    1
     3     9    10   ar
     4    10    11   ar
     5    11     5    1
     6     5     6    2
     7     5     7   am
     8     7     4    1
     9     4     1    1
    10     1     2    1
    11     1    20    1
    12    20    21    1
    13    21    22    1
    14    22    23    1
    15    23    24    1
    16    24    27    1
    17    27    28    1
    18    28    29   ar
    19    29    30   ar
    20    30    31   ar
    21    31    32    1
    22    31    33   ar
    23    33    34    1
    24    33    35   ar
    25    24    25    1
    26    25    26    1
    27    11    12   ar
    28    12    13   ar
    29    13    14   ar
    30    14    15    1
    31    14     9   ar
    32    26    21    1
    33    35    28   ar
    34     7     8    1
    35     2     3    1
    36    15    16    1
    37    15    17    1
@<TRIPOS>MOLECULE
*****
 35 37 0 0 0
SMALL
GASTEIGER

@<TRIPOS>ATOM
      1 C         142.9889  140.5935  169.8715 C.3     1  UNL1        0.1459
      2 O         143.8960  140.2095  171.0028 O.3     1  UNL1       -0.3813
      3 H         144.3590  140.9975  171.3277 H       1  UNL1        0.2105
      4 C         142.1554  139.5487  169.1907 C.3     1  UNL1        0.1204
      5 C         141.4064  139.1347  166.7376 C.2     1  UNL1        0.2460
      6 O         140.0121  139.5598  167.0916 O.2     1  UNL1       -0.2701
      7 N         142.4780  139.1292  167.7872 N.am    1  UNL1       -0.2985
      8 H         143.3931  138.8502  167.5548 H       1  UNL1        0.1498
      9 C         143.1971  138.9336  163.2017 C.ar    1  UNL1        0.1516
     10 C         142.8744  139.3531  164.6052 C.ar    1  UNL1        0.0427
     11 C         141.7291  138.7152  165.3340 C.ar    1  UNL1        0.0565
     12 C         140.9065  137.6578  164.6594 C.ar    1  UNL1        0.0060
     13 C         141.2292  137.2383  163.2559 C.ar    1  UNL1        0.0173
     14 C         142.3745  137.8762  162.5271 C.ar    1  UNL1        0.0760
     15 N         142.6972  137.4567  161.1235 N.pl3   1  UNL1       -0.3546
     16 H         142.1572  136.7626  160.6807 H       1  UNL1        0.1424
     17 H         143.4489  137.8753  160.6451 H       1  UNL1        0.1424
     18 C         144.8400  140.9225  162.8936 C.3     1  UNL1        0.2525
     19 O         144.3424  139.5715  162.4728 O.3     1  UNL1       -0.4702
     20 C         142.9154  142.0225  169.4211 C.3     1  UNL1        0.1034
     21 N         142.3979  142.3516  168.0522 N.3     1  UNL1       -0.2704
     22 C         140.9406  142.6452  167.8519 C.3     1  UNL1        0.0759
     23 C         140.4231  142.9744  166.4830 C.3     1  UNL1        0.0609
     24 C         141.3630  143.0099  165.3144 C.3     1  UNL1        0.1687
     25 C         142.8203  142.7163  165.5148 C.3     1  UNL1        0.0609
     26 C         143.3377  142.3872  166.8837 C.3     1  UNL1        0.0759
     27 O         140.8456  143.3391  163.9455 O.3     1  UNL1       -0.4790
     28 C         140.5543  142.2382  162.9691 C.ar    1  UNL1        0.1393
     29 C         141.3665  142.1144  161.7141 C.ar    1  UNL1        0.0378
     30 C         141.0751  141.0136  160.7377 C.ar    1  UNL1        0.0154
     31 C         139.9716  140.0365  161.0163 C.ar    1  UNL1        0.0684
     32 CL        139.6803  138.9357  160.0400 Cl      1  UNL1       -0.0814
     33 C         139.1594  140.1604  162.2714 C.ar    1  UNL1        0.0712
     34 CL        138.0559  139.1834  162.5500 Cl      1  UNL1       -0.0813
     35 C         139.4507  141.2612  163.2477 C.ar    1  UNL1        0.0491
@<TRIPOS>BOND
     1    18    19    1
     2    19     9    1
     3     9    10   ar
     4    10    11   ar
     5    11     5    1
     6     5     6    2
     7     5     7   am
     8     7     4    1
     9     4     1    1
    10     1     2    1
    11     1    20    1
    12    20    21    1
    13    21    22    1
    14    22    23    1
    15    23    24    1
    16    24    27    1
    17    27    28    1
    18    28    29   ar
    19    29    30   ar
    20    30    31   ar
    21    31    32    1
    22    31    33   ar
    23    33    34    1
    24    33    35   ar
    25    24    25    1
    26    25    26    1
    27    11    12   ar
    28    12    13   ar
    29    13    14   ar
    30    14    15    1
    31    14     9   ar
    32    26    21    1
    33    35    28   ar
    34     7     8    1
    35     2     3    1
    36    15    16    1
    37    15    17    1
@<TRIPOS>MOLECULE
*****
 35 37 0 0 0
SMALL
GASTEIGER

@<TRIPOS>ATOM
      1 C         140.1321  141.2681  169.9038 C.3     1  UNL1        0.1459
      2 O         140.5478  141.1512  171.3402 O.3     1  UNL1       -0.3813
      3 H         140.9391  141.9892  171.6328 H       1  UNL1        0.2105
      4 C         139.4957  140.1005  169.2098 C.3     1  UNL1        0.1204
      5 C         138.4457  139.2004  167.0104 C.2     1  UNL1        0.2460
      6 O         137.4437  138.4198  167.8082 O.2     1  UNL1       -0.2701
      7 N         139.4717  140.0408  167.7112 N.am    1  UNL1       -0.2985
      8 H         140.1294  140.5531  167.1876 H       1  UNL1        0.1498
      9 C         137.8522  140.2351  163.2253 C.ar    1  UNL1        0.1516
     10 C         137.8762  140.2947  164.7238 C.ar    1  UNL1        0.0427
     11 C         138.4217  139.1407  165.5117 C.ar    1  UNL1        0.0565
     12 C         138.9433  137.9272  164.8010 C.ar    1  UNL1        0.0060
     13 C         138.9193  137.8675  163.3025 C.ar    1  UNL1        0.0173
     14 C         138.3737  139.0215  162.5146 C.ar    1  UNL1        0.0760
     15 N         138.3498  138.9618  161.0159 N.pl3   1  UNL1       -0.3546
     16 H         138.6921  138.1653  160.5494 H       1  UNL1        0.1424
     17 H         137.9917  139.7192  160.4987 H       1  UNL1        0.1424
     18 C         137.8719  142.7646  162.6328 C.3     1  UNL1        0.2525
     19 O         137.3066  141.3890  162.4374 O.3     1  UNL1       -0.4702
     20 C         140.3529  142.5526  169.1612 C.3     1  UNL1        0.1034
     21 N         141.0588  142.5421  167.8377 N.3     1  UNL1       -0.2704
     22 C         140.3345  142.9759  166.5979 C.3     1  UNL1        0.0759
     23 C         141.0404  142.9653  165.2744 C.3     1  UNL1        0.0609
     24 C         142.4707  142.5209  165.1908 C.3     1  UNL1        0.1687
     25 C         143.1950  142.0872  166.4307 C.3     1  UNL1        0.0609
     26 C         142.4890  142.0977  167.7541 C.3     1  UNL1        0.0759
     27 O         143.1766  142.5104  163.8674 O.3     1  UNL1       -0.4790
     28 C         142.7986  141.5013  162.8238 C.ar    1  UNL1        0.1393
     29 C         141.6682  141.7861  161.8799 C.ar    1  UNL1        0.0378
     30 C         141.2902  140.7770  160.8363 C.ar    1  UNL1        0.0154
     31 C         142.0427  139.4833  160.7366 C.ar    1  UNL1        0.0684
     32 CL        141.6648  138.4742  159.6931 Cl      1  UNL1       -0.0814
     33 C         143.1732  139.1985  161.6806 C.ar    1  UNL1        0.0712
     34 CL        143.9257  137.9048  161.5810 Cl      1  UNL1       -0.0813
     35 C         143.5511  140.2076  162.7241 C.ar    1  UNL1        0.0491
@<TRIPOS>BOND
     1    18    19    1
     2    19     9    1
     3     9    10   ar
     4    10    11   ar
     5    11     5    1
     6     5     6    2
     7     5     7   am
     8     7     4    1
     9     4     1    1
    10     1     2    1
    11     1    20    1
    12    20    21    1
    13    21    22    1
    14    22    23    1
    15    23    24    1
    16    24    27    1
    17    27    28    1
    18    28    29   ar
    19    29    30   ar
    20    30    31   ar
    21    31    32    1
    22    31    33   ar
    23    33    34    1
    24    33    35   ar
    25    24    25    1
    26    25    26    1
    27    11    12   ar
    28    12    13   ar
    29    13    14   ar
    30    14    15    1
    31    14     9   ar
    32    26    21    1
    33    35    28   ar
    34     7     8    1
    35     2     3    1
    36    15    16    1
    37    15    17    1
@<TRIPOS>MOLECULE
*****
 35 37 0 0 0
SMALL
GASTEIGER

@<TRIPOS>ATOM
      1 C         142.3284  143.1536  169.9228 C.3     1  UNL1        0.1459
      2 O         142.8625  144.1012  170.9555 O.3     1  UNL1       -0.3813
      3 H         142.1314  144.6171  171.3300 H       1  UNL1        0.2105
      4 C         143.2634  142.2371  169.1908 C.3     1  UNL1        0.1204
      5 C         143.4418  141.5272  166.6980 C.2     1  UNL1        0.2460
      6 O         142.8231  140.2020  167.0310 O.2     1  UNL1       -0.2701
      7 N         143.6620  142.5448  167.7778 N.am    1  UNL1       -0.2985
      8 H         144.0681  143.4145  167.5592 H       1  UNL1        0.1498
      9 C         143.7815  143.4158  163.2241 C.ar    1  UNL1        0.1516
     10 C         143.3829  143.1081  164.6370 C.ar    1  UNL1        0.0427
     11 C         143.8404  141.8349  165.2850 C.ar    1  UNL1        0.0565
     12 C         144.6964  140.8696  164.5200 C.ar    1  UNL1        0.0060
     13 C         145.0949  141.1773  163.1071 C.ar    1  UNL1        0.0173
     14 C         144.6375  142.4504  162.4591 C.ar    1  UNL1        0.0760
     15 N         145.0361  142.7582  161.0461 N.pl3   1  UNL1       -0.3546
     16 H         145.5979  142.1245  160.5440 H       1  UNL1        0.1424
     17 H         144.7358  143.5938  160.6208 H       1  UNL1        0.1424
     18 C         141.9477  144.7780  161.9864 C.3     1  UNL1        0.2525
     19 O         143.3240  144.6890  162.5761 O.3     1  UNL1       -0.4702
     20 C         140.8591  143.1223  169.6220 C.3     1  UNL1        0.1034
     21 N         140.3340  142.2259  168.5401 N.3     1  UNL1       -0.2704
     22 C         139.9306  140.8176  168.8629 C.3     1  UNL1        0.0759
     23 C         139.4055  139.9212  167.7809 C.3     1  UNL1        0.0609
     24 C         139.2837  140.4331  166.3762 C.3     1  UNL1        0.1687
     25 C         139.6870  141.8413  166.0534 C.3     1  UNL1        0.0609
     26 C         140.2121  142.7377  167.1354 C.3     1  UNL1        0.0759
     27 O         138.7585  139.5366  165.2942 O.3     1  UNL1       -0.4790
     28 C         139.6731  139.0610  164.2045 C.ar    1  UNL1        0.1393
     29 C         141.1142  138.7749  164.5066 C.ar    1  UNL1        0.0378
     30 C         142.0289  138.2992  163.4169 C.ar    1  UNL1        0.0154
     31 C         141.5023  138.1098  162.0252 C.ar    1  UNL1        0.0684
     32 CL        142.4169  137.6342  160.9356 Cl      1  UNL1       -0.0814
     33 C         140.0611  138.3960  161.7232 C.ar    1  UNL1        0.0712
     34 CL        139.5346  138.2066  160.3315 Cl      1  UNL1       -0.0813
     35 C         139.1466  138.8716  162.8128 C.ar    1  UNL1        0.0491
@<TRIPOS>BOND
     1    18    19    1
     2    19     9    1
     3     9    10   ar
     4    10    11   ar
     5    11     5    1
     6     5     6    2
     7     5     7   am
     8     7     4    1
     9     4     1    1
    10     1     2    1
    11     1    20    1
    12    20    21    1
    13    21    22    1
    14    22    23    1
    15    23    24    1
    16    24    27    1
    17    27    28    1
    18    28    29   ar
    19    29    30   ar
    20    30    31   ar
    21    31    32    1
    22    31    33   ar
    23    33    34    1
    24    33    35   ar
    25    24    25    1
    26    25    26    1
    27    11    12   ar
    28    12    13   ar
    29    13    14   ar
    30    14    15    1
    31    14     9   ar
    32    26    21    1
    33    35    28   ar
    34     7     8    1
    35     2     3    1
    36    15    16    1
    37    15    17    1
@<TRIPOS>MOLECULE
*****
 35 37 0 0 0
SMALL
GASTEIGER

@<TRIPOS>ATOM
      1 C         141.8194  142.4951  170.4485 C.3     1  UNL1        0.1459
      2 O         142.1596  142.5439  171.9086 O.3     1  UNL1       -0.3813
      3 H         143.1235  142.5661  172.0154 H       1  UNL1        0.2105
      4 C         140.3844  142.4541  170.0137 C.3     1  UNL1        0.1204
      5 C         139.5879  140.6707  168.3006 C.2     1  UNL1        0.2460
      6 O         139.4843  139.6584  169.4025 O.2     1  UNL1       -0.2701
      7 N         140.0379  142.0686  168.6062 N.am    1  UNL1       -0.2985
      8 H         140.1058  142.7331  167.8829 H       1  UNL1        0.1498
      9 C         138.8842  140.9394  164.4041 C.ar    1  UNL1        0.1516
     10 C         139.2307  141.3248  165.8116 C.ar    1  UNL1        0.0427
     11 C         139.2414  140.2852  166.8929 C.ar    1  UNL1        0.0565
     12 C         138.9056  138.8602  166.5666 C.ar    1  UNL1        0.0060
     13 C         138.5591  138.4748  165.1590 C.ar    1  UNL1        0.0173
     14 C         138.5484  139.5144  164.0778 C.ar    1  UNL1        0.0760
     15 N         138.2019  139.1289  162.6701 N.pl3   1  UNL1       -0.3546
     16 H         137.9815  138.1935  162.4559 H       1  UNL1        0.1424
     17 H         138.1949  139.8111  161.9604 H       1  UNL1        0.1424
     18 C         137.7698  142.9932  163.2684 C.3     1  UNL1        0.2525
     19 O         138.8735  141.9789  163.3228 O.3     1  UNL1       -0.4702
     20 C         142.9143  142.4874  169.4231 C.3     1  UNL1        0.1034
     21 N         142.9324  141.4362  168.3532 N.3     1  UNL1       -0.2704
     22 C         142.9861  141.8370  166.9087 C.3     1  UNL1        0.0759
     23 C         143.0042  140.7858  165.8389 C.3     1  UNL1        0.0609
     24 C         142.9686  139.3337  166.2135 C.3     1  UNL1        0.1687
     25 C         142.9149  138.9329  167.6579 C.3     1  UNL1        0.0609
     26 C         142.8968  139.9842  168.7278 C.3     1  UNL1        0.0759
     27 O         142.9867  138.2825  165.1437 O.3     1  UNL1       -0.4790
     28 C         143.0349  138.6835  163.6990 C.ar    1  UNL1        0.1393
     29 C         144.2499  139.3720  163.1518 C.ar    1  UNL1        0.0378
     30 C         144.2981  139.7730  161.7072 C.ar    1  UNL1        0.0154
     31 C         143.1311  139.4853  160.8097 C.ar    1  UNL1        0.0684
     32 CL        143.1792  139.8862  159.3651 Cl      1  UNL1       -0.0814
     33 C         141.9160  138.7967  161.3569 C.ar    1  UNL1        0.0712
     34 CL        140.7490  138.5090  160.4595 Cl      1  UNL1       -0.0813
     35 C         141.8679  138.3958  162.8015 C.ar    1  UNL1        0.0491
@<TRIPOS>BOND
     1    18    19    1
     2    19     9    1
     3     9    10   ar
     4    10    11   ar
     5    11     5    1
     6     5     6    2
     7     5     7   am
     8     7     4    1
     9     4     1    1
    10     1     2    1
    11     1    20    1
    12    20    21    1
    13    21    22    1
    14    22    23    1
    15    23    24    1
    16    24    27    1
    17    27    28    1
    18    28    29   ar
    19    29    30   ar
    20    30    31   ar
    21    31    32    1
    22    31    33   ar
    23    33    34    1
    24    33    35   ar
    25    24    25    1
    26    25    26    1
    27    11    12   ar
    28    12    13   ar
    29    13    14   ar
    30    14    15    1
    31    14     9   ar
    32    26    21    1
    33    35    28   ar
    34     7     8    1
    35     2     3    1
    36    15    16    1
    37    15    17    1
@<TRIPOS>MOLECULE
*****
 35 37 0 0 0
SMALL
GASTEIGER

@<TRIPOS>ATOM
      1 C         142.0227  144.8742  158.1883 C.3     1  UNL1        0.1459
      2 O         142.5308  146.2387  157.8277 O.3     1  UNL1       -0.3813
      3 H         141.7824  146.8493  157.7389 H       1  UNL1        0.2105
      4 C         142.9873  143.7424  158.3844 C.3     1  UNL1        0.1204
      5 C         142.8149  142.8063  160.8018 C.2     1  UNL1        0.2460
      6 O         143.3203  144.1108  161.3430 O.2     1  UNL1       -0.2701
      7 N         142.6484  142.6221  159.3225 N.am    1  UNL1       -0.2985
      8 H         142.3167  141.7659  158.9673 H       1  UNL1        0.1498
      9 C         141.4500  139.3365  162.1611 C.ar    1  UNL1        0.1516
     10 C         141.7890  140.4568  161.2230 C.ar    1  UNL1        0.0427
     11 C         142.4760  141.6859  161.7399 C.ar    1  UNL1        0.0565
     12 C         142.8240  141.7948  163.1949 C.ar    1  UNL1        0.0060
     13 C         142.4851  140.6745  164.1329 C.ar    1  UNL1        0.0173
     14 C         141.7981  139.4453  163.6160 C.ar    1  UNL1        0.0760
     15 N         141.4591  138.3250  164.5541 N.pl3   1  UNL1       -0.3546
     16 H         141.6876  138.3964  165.5091 H       1  UNL1        0.1424
     17 H         141.0083  137.5182  164.2149 H       1  UNL1        0.1424
     18 C         139.2651  138.0302  161.6420 C.3     1  UNL1        0.2525
     19 O         140.7630  138.1073  161.6441 O.3     1  UNL1       -0.4702
     20 C         140.5500  144.6416  158.3529 C.3     1  UNL1        0.1034
     21 N         139.9635  144.4893  159.7251 N.3     1  UNL1       -0.2704
     22 C         140.1330  145.5820  160.7387 C.3     1  UNL1        0.0759
     23 C         139.5466  145.4297  162.1108 C.3     1  UNL1        0.0609
     24 C         138.7905  144.1847  162.4694 C.3     1  UNL1        0.1687
     25 C         138.6210  143.0921  161.4558 C.3     1  UNL1        0.0609
     26 C         139.2075  143.2444  160.0837 C.3     1  UNL1        0.0759
     27 O         138.2040  144.0324  163.8416 O.3     1  UNL1       -0.4790
     28 C         138.7624  143.0101  164.7866 C.ar    1  UNL1        0.1393
     29 C         139.8556  143.3891  165.7412 C.ar    1  UNL1        0.0378
     30 C         140.4140  142.3668  166.6863 C.ar    1  UNL1        0.0154
     31 C         139.8792  140.9654  166.6767 C.ar    1  UNL1        0.0684
     32 CL        140.4375  139.9431  167.6217 Cl      1  UNL1       -0.0814
     33 C         138.7859  140.5864  165.7221 C.ar    1  UNL1        0.0712
     34 CL        138.2511  139.1850  165.7125 Cl      1  UNL1       -0.0813
     35 C         138.2276  141.6087  164.7771 C.ar    1  UNL1        0.0491
@<TRIPOS>BOND
     1    18    19    1
     2    19     9    1
     3     9    10   ar
     4    10    11   ar
     5    11     5    1
     6     5     6    2
     7     5     7   am
     8     7     4    1
     9     4     1    1
    10     1     2    1
    11     1    20    1
    12    20    21    1
    13    21    22    1
    14    22    23    1
    15    23    24    1
    16    24    27    1
    17    27    28    1
    18    28    29   ar
    19    29    30   ar
    20    30    31   ar
    21    31    32    1
    22    31    33   ar
    23    33    34    1
    24    33    35   ar
    25    24    25    1
    26    25    26    1
    27    11    12   ar
    28    12    13   ar
    29    13    14   ar
    30    14    15    1
    31    14     9   ar
    32    26    21    1
    33    35    28   ar
    34     7     8    1
    35     2     3    1
    36    15    16    1
    37    15    17    1
@<TRIPOS>MOLECULE
*****
 35 37 0 0 0
SMALL
GASTEIGER

@<TRIPOS>ATOM
      1 C         140.7598  139.9291  169.3376 C.3     1  UNL1        0.1459
      2 O         140.3798  139.4866  170.7195 O.3     1  UNL1       -0.3813
      3 H         141.1525  139.5479  171.3026 H       1  UNL1        0.2105
      4 C         139.7358  139.9278  168.2415 C.3     1  UNL1        0.1204
      5 C         139.4307  140.8947  165.8495 C.2     1  UNL1        0.2460
      6 O         139.3578  139.5025  165.2960 O.2     1  UNL1       -0.2701
      7 N         139.6197  141.1074  167.3222 N.am    1  UNL1       -0.2985
      8 H         139.6675  142.0212  167.6855 H       1  UNL1        0.1498
      9 C         138.4618  143.1220  162.7109 C.ar    1  UNL1        0.1516
     10 C         138.5779  141.9425  163.6302 C.ar    1  UNL1        0.0427
     11 C         139.3146  142.0744  164.9302 C.ar    1  UNL1        0.0565
     12 C         139.9351  143.3858  165.3109 C.ar    1  UNL1        0.0060
     13 C         139.8190  144.5654  164.3916 C.ar    1  UNL1        0.0173
     14 C         139.0824  144.4335  163.0916 C.ar    1  UNL1        0.0760
     15 N         138.9663  145.6131  162.1723 N.pl3   1  UNL1       -0.3546
     16 H         139.3735  146.4739  162.4222 H       1  UNL1        0.1424
     17 H         138.4828  145.5266  161.3191 H       1  UNL1        0.1424
     18 C         138.4470  142.5158  160.1846 C.3     1  UNL1        0.2525
     19 O         137.7252  142.9901  161.4109 O.3     1  UNL1       -0.4702
     20 C         142.1638  140.3730  169.0517 C.3     1  UNL1        0.1034
     21 N         142.7099  140.2823  167.6576 N.3     1  UNL1       -0.2704
     22 C         142.9320  141.5309  166.8564 C.3     1  UNL1        0.0759
     23 C         143.4781  141.4402  165.4623 C.3     1  UNL1        0.0609
     24 C         143.8020  140.1009  164.8693 C.3     1  UNL1        0.1687
     25 C         143.5798  138.8524  165.6705 C.3     1  UNL1        0.0609
     26 C         143.0338  138.9431  167.0646 C.3     1  UNL1        0.0759
     27 O         144.3480  140.0102  163.4752 O.3     1  UNL1       -0.4790
     28 C         143.4474  139.6197  162.3409 C.ar    1  UNL1        0.1393
     29 C         144.0358  139.1923  161.0290 C.ar    1  UNL1        0.0378
     30 C         143.1352  138.8018  159.8947 C.ar    1  UNL1        0.0154
     31 C         141.6463  138.8387  160.0724 C.ar    1  UNL1        0.0684
     32 CL        140.7457  138.4483  158.9382 Cl      1  UNL1       -0.0814
     33 C         141.0579  139.2662  161.3844 C.ar    1  UNL1        0.0712
     34 CL        139.5689  139.3031  161.5621 Cl      1  UNL1       -0.0813
     35 C         141.9584  139.6566  162.5186 C.ar    1  UNL1        0.0491
@<TRIPOS>BOND
     1    18    19    1
     2    19     9    1
     3     9    10   ar
     4    10    11   ar
     5    11     5    1
     6     5     6    2
     7     5     7   am
     8     7     4    1
     9     4     1    1
    10     1     2    1
    11     1    20    1
    12    20    21    1
    13    21    22    1
    14    22    23    1
    15    23    24    1
    16    24    27    1
    17    27    28    1
    18    28    29   ar
    19    29    30   ar
    20    30    31   ar
    21    31    32    1
    22    31    33   ar
    23    33    34    1
    24    33    35   ar
    25    24    25    1
    26    25    26    1
    27    11    12   ar
    28    12    13   ar
    29    13    14   ar
    30    14    15    1
    31    14     9   ar
    32    26    21    1
    33    35    28   ar
    34     7     8    1
    35     2     3    1
    36    15    16    1
    37    15    17    1
