@<TRIPOS>MOLECULE
*****
 30 33 0 0 0
SMALL
GASTEIGER

@<TRIPOS>ATOM
      1 C         142.6118  137.9959  158.3606 C.ar    1  UNL1        0.0966
      2 C         141.5023  137.7246  159.3330 C.ar    1  UNL1        0.0370
      3 C         141.8400  138.4092  160.6243 C.ar    1  UNL1        0.0840
      4 N         143.1581  139.1036  160.4500 N.ar    1  UNL1       -0.2299
      5 N         143.6352  138.8481  159.0510 N.ar    1  UNL1       -0.1681
      6 C         143.8736  139.9115  161.4917 C.ar    1  UNL1        0.0829
      7 C         144.2722  139.2760  162.7906 C.ar    1  UNL1        0.0215
      8 C         144.9878  140.0839  163.8324 C.ar    1  UNL1        0.0312
      9 C         145.3047  141.5273  163.5753 C.ar    1  UNL1        0.1402
     10 F         146.0202  142.3353  164.6170 F       1  UNL1       -0.2042
     11 C         144.9061  142.1629  162.2762 C.ar    1  UNL1        0.0312
     12 C         144.1905  141.3549  161.2345 C.ar    1  UNL1        0.0215
     13 C         141.0059  138.4009  161.8710 C.ar    1  UNL1        0.0177
     14 C         141.2495  137.3664  162.9294 C.ar    1  UNL1        0.0012
     15 C         140.4154  137.3580  164.1761 C.ar    1  UNL1       -0.0042
     16 C         139.3378  138.3842  164.3644 C.ar    1  UNL1       -0.0225
     17 C         139.0942  139.4188  163.3059 C.ar    1  UNL1       -0.0042
     18 C         139.9282  139.4271  162.0592 C.ar    1  UNL1        0.0012
     19 C         138.5037  138.3759  165.6111 C.3     1  UNL1        0.0224
     20 C         138.0132  137.0760  166.1766 C.3     1  UNL1        0.0047
     21 C         138.1602  139.6674  166.2922 C.3     1  UNL1        0.0047
     22 C         142.6851  137.5017  156.9462 C.3     1  UNL1        0.1205
     23 C         142.2878  133.1047  156.0757 C.3     1  UNL1        0.1181
     24 C         143.2355  133.5762  157.1384 C.3     1  UNL1        0.0469
     25 C         143.3680  135.0419  157.4286 C.3     1  UNL1        0.0749
     26 N         142.5527  136.0361  156.6561 N.3     1  UNL1       -0.2675
     27 C         141.6049  135.5645  155.5933 C.3     1  UNL1        0.0749
     28 C         141.4725  134.0989  155.3031 C.3     1  UNL1        0.0469
     29 C         141.0638  131.1492  154.8807 C.3     1  UNL1        0.1740
     30 O         142.1554  131.6390  155.7855 O.3     1  UNL1       -0.3535
@<TRIPOS>BOND
     1    29    30    1
     2    30    23    1
     3    23    24    1
     4    24    25    1
     5    25    26    1
     6    26    22    1
     7    22     1    1
     8     1     2   ar
     9     2     3   ar
    10     3    13    1
    11    13    14   ar
    12    14    15   ar
    13    15    16   ar
    14    16    19    1
    15    19    20    1
    16    19    21    1
    17    16    17   ar
    18    17    18   ar
    19     3     4   ar
    20     4     6    1
    21     6     7   ar
    22     7     8   ar
    23     8     9   ar
    24     9    10    1
    25     9    11   ar
    26    11    12   ar
    27     4     5   ar
    28    26    27    1
    29    27    28    1
    30    28    23    1
    31     5     1   ar
    32    18    13   ar
    33    12     6   ar
@<TRIPOS>MOLECULE
*****
 30 33 0 0 0
SMALL
GASTEIGER

@<TRIPOS>ATOM
      1 C         142.7109  138.2777  158.2063 C.ar    1  UNL1        0.0966
      2 C         143.2753  139.5098  158.8494 C.ar    1  UNL1        0.0370
      3 C         142.7342  139.5930  160.2460 C.ar    1  UNL1        0.0840
      4 N         141.8354  138.4124  160.4660 N.ar    1  UNL1       -0.2299
      5 N         141.8210  137.5995  159.2055 N.ar    1  UNL1       -0.1681
      6 C         141.0832  138.0996  161.7254 C.ar    1  UNL1        0.0829
      7 C         139.5866  138.1986  161.7493 C.ar    1  UNL1        0.0215
      8 C         138.8344  137.8858  163.0088 C.ar    1  UNL1        0.0312
      9 C         139.5786  137.4741  164.2444 C.ar    1  UNL1        0.1402
     10 F         138.8263  137.1613  165.5038 F       1  UNL1       -0.2042
     11 C         141.0752  137.3751  164.2205 C.ar    1  UNL1        0.0312
     12 C         141.8274  137.6879  162.9609 C.ar    1  UNL1        0.0215
     13 C         143.0385  140.6681  161.2468 C.ar    1  UNL1        0.0177
     14 C         142.0037  141.7038  161.5730 C.ar    1  UNL1        0.0012
     15 C         142.3080  142.7788  162.5738 C.ar    1  UNL1       -0.0042
     16 C         143.6471  142.8182  163.2484 C.ar    1  UNL1       -0.0225
     17 C         144.6820  141.7825  162.9221 C.ar    1  UNL1       -0.0042
     18 C         144.3777  140.7075  161.9214 C.ar    1  UNL1        0.0012
     19 C         143.9514  143.8933  164.2491 C.3     1  UNL1        0.0224
     20 C         144.6293  143.5451  165.5412 C.3     1  UNL1        0.0047
     21 C         143.5779  145.3165  163.9579 C.3     1  UNL1        0.0047
     22 C         142.9877  137.8066  156.8094 C.3     1  UNL1        0.1205
     23 C         141.7575  133.6665  155.5458 C.3     1  UNL1        0.1181
     24 C         142.8716  133.8493  156.5335 C.3     1  UNL1        0.0469
     25 C         143.2816  135.2293  156.9547 C.3     1  UNL1        0.0749
     26 N         142.5777  136.4266  156.3882 N.3     1  UNL1       -0.2675
     27 C         141.4636  136.2438  155.4005 C.3     1  UNL1        0.0749
     28 C         141.0536  134.8638  154.9794 C.3     1  UNL1        0.0469
     29 C         142.0848  131.0913  155.6518 C.3     1  UNL1        0.1740
     30 O         141.3475  132.2865  155.1247 O.3     1  UNL1       -0.3535
@<TRIPOS>BOND
     1    29    30    1
     2    30    23    1
     3    23    24    1
     4    24    25    1
     5    25    26    1
     6    26    22    1
     7    22     1    1
     8     1     2   ar
     9     2     3   ar
    10     3    13    1
    11    13    14   ar
    12    14    15   ar
    13    15    16   ar
    14    16    19    1
    15    19    20    1
    16    19    21    1
    17    16    17   ar
    18    17    18   ar
    19     3     4   ar
    20     4     6    1
    21     6     7   ar
    22     7     8   ar
    23     8     9   ar
    24     9    10    1
    25     9    11   ar
    26    11    12   ar
    27     4     5   ar
    28    26    27    1
    29    27    28    1
    30    28    23    1
    31     5     1   ar
    32    18    13   ar
    33    12     6   ar
@<TRIPOS>MOLECULE
*****
 30 33 0 0 0
SMALL
GASTEIGER

@<TRIPOS>ATOM
      1 C         140.1075  144.0361  162.2893 C.ar    1  UNL1        0.0966
      2 C         140.8412  144.2823  163.5742 C.ar    1  UNL1        0.0370
      3 C         140.6872  143.0647  164.4367 C.ar    1  UNL1        0.0840
      4 N         139.8583  142.0659  163.6847 N.ar    1  UNL1       -0.2299
      5 N         139.5000  142.6663  162.3576 N.ar    1  UNL1       -0.1681
      6 C         139.4579  140.7057  164.1740 C.ar    1  UNL1        0.0829
      7 C         138.4312  140.5712  165.2591 C.ar    1  UNL1        0.0215
      8 C         138.0308  139.2109  165.7484 C.ar    1  UNL1        0.0312
      9 C         138.6572  137.9851  165.1525 C.ar    1  UNL1        0.1402
     10 F         138.2569  136.6248  165.6418 F       1  UNL1       -0.2042
     11 C         139.6841  138.1196  164.0673 C.ar    1  UNL1        0.0312
     12 C         140.0843  139.4800  163.5781 C.ar    1  UNL1        0.0215
     13 C         141.2613  142.8785  165.8099 C.ar    1  UNL1        0.0177
     14 C         142.7226  142.5855  165.9784 C.ar    1  UNL1        0.0012
     15 C         143.2967  142.3993  167.3516 C.ar    1  UNL1       -0.0042
     16 C         142.4095  142.5062  168.5563 C.ar    1  UNL1       -0.0225
     17 C         140.9481  142.7992  168.3878 C.ar    1  UNL1       -0.0042
     18 C         140.3740  142.9854  167.0146 C.ar    1  UNL1        0.0012
     19 C         142.9836  142.3200  169.9295 C.3     1  UNL1        0.0224
     20 C         144.4437  142.5645  170.1715 C.3     1  UNL1        0.0047
     21 C         142.0977  141.8893  171.0607 C.3     1  UNL1        0.0047
     22 C         140.0001  144.9918  161.1382 C.3     1  UNL1        0.1205
     23 C         142.2829  144.2060  157.3407 C.3     1  UNL1        0.1181
     24 C         142.6739  143.5072  158.6091 C.3     1  UNL1        0.0469
     25 C         141.9130  143.7692  159.8749 C.3     1  UNL1        0.0749
     26 N         140.7610  144.7299  159.8724 N.3     1  UNL1       -0.2675
     27 C         140.3700  145.4286  158.6040 C.3     1  UNL1        0.0749
     28 C         141.1309  145.1666  157.3382 C.3     1  UNL1        0.0469
     29 C         143.8907  142.7123  155.9501 C.3     1  UNL1        0.1740
     30 O         143.0438  143.9440  156.0749 O.3     1  UNL1       -0.3535
@<TRIPOS>BOND
     1    29    30    1
     2    30    23    1
     3    23    24    1
     4    24    25    1
     5    25    26    1
     6    26    22    1
     7    22     1    1
     8     1     2   ar
     9     2     3   ar
    10     3    13    1
    11    13    14   ar
    12    14    15   ar
    13    15    16   ar
    14    16    19    1
    15    19    20    1
    16    19    21    1
    17    16    17   ar
    18    17    18   ar
    19     3     4   ar
    20     4     6    1
    21     6     7   ar
    22     7     8   ar
    23     8     9   ar
    24     9    10    1
    25     9    11   ar
    26    11    12   ar
    27     4     5   ar
    28    26    27    1
    29    27    28    1
    30    28    23    1
    31     5     1   ar
    32    18    13   ar
    33    12     6   ar
@<TRIPOS>MOLECULE
*****
 30 33 0 0 0
SMALL
GASTEIGER

@<TRIPOS>ATOM
      1 C         142.7408  142.6554  161.5759 C.ar    1  UNL1        0.0966
      2 C         142.8836  143.1802  162.9739 C.ar    1  UNL1        0.0370
      3 C         142.1470  142.2529  163.8946 C.ar    1  UNL1        0.0840
      4 N         141.5490  141.1550  163.0657 N.ar    1  UNL1       -0.2299
      5 N         141.9159  141.4037  161.6327 N.ar    1  UNL1       -0.1681
      6 C         140.7281  140.0096  163.5795 C.ar    1  UNL1        0.0829
      7 C         141.3500  138.9877  164.4845 C.ar    1  UNL1        0.0215
      8 C         140.5292  137.8423  164.9984 C.ar    1  UNL1        0.0312
      9 C         139.0863  137.7186  164.6072 C.ar    1  UNL1        0.1402
     10 F         138.2655  136.5731  165.1211 F       1  UNL1       -0.2042
     11 C         138.4644  138.7405  163.7022 C.ar    1  UNL1        0.0312
     12 C         139.2853  139.8859  163.1884 C.ar    1  UNL1        0.0215
     13 C         142.0291  142.3980  165.3829 C.ar    1  UNL1        0.0177
     14 C         140.7001  142.7127  166.0028 C.ar    1  UNL1        0.0012
     15 C         140.5822  142.8579  167.4911 C.ar    1  UNL1       -0.0042
     16 C         141.7934  142.6883  168.3595 C.ar    1  UNL1       -0.0225
     17 C         143.1226  142.3736  167.7395 C.ar    1  UNL1       -0.0042
     18 C         143.2404  142.2284  166.2512 C.ar    1  UNL1        0.0012
     19 C         141.6755  142.8334  169.8478 C.3     1  UNL1        0.0224
     20 C         140.3472  142.6404  170.5173 C.3     1  UNL1        0.0047
     21 C         142.8860  143.1716  170.6665 C.3     1  UNL1        0.0047
     22 C         143.3210  143.2736  160.3385 C.3     1  UNL1        0.1205
     23 C         140.7021  145.6901  157.5905 C.3     1  UNL1        0.1181
     24 C         141.8850  144.9499  157.0404 C.3     1  UNL1        0.0469
     25 C         142.7580  144.1444  157.9564 C.3     1  UNL1        0.0749
     26 N         142.4480  144.0791  159.4225 N.3     1  UNL1       -0.2675
     27 C         141.2651  144.8193  159.9726 C.3     1  UNL1        0.0749
     28 C         140.3921  145.6248  159.0566 C.3     1  UNL1        0.0469
     29 C         140.3328  146.8979  155.3201 C.3     1  UNL1        0.1740
     30 O         139.8291  146.4957  156.6745 O.3     1  UNL1       -0.3535
@<TRIPOS>BOND
     1    29    30    1
     2    30    23    1
     3    23    24    1
     4    24    25    1
     5    25    26    1
     6    26    22    1
     7    22     1    1
     8     1     2   ar
     9     2     3   ar
    10     3    13    1
    11    13    14   ar
    12    14    15   ar
    13    15    16   ar
    14    16    19    1
    15    19    20    1
    16    19    21    1
    17    16    17   ar
    18    17    18   ar
    19     3     4   ar
    20     4     6    1
    21     6     7   ar
    22     7     8   ar
    23     8     9   ar
    24     9    10    1
    25     9    11   ar
    26    11    12   ar
    27     4     5   ar
    28    26    27    1
    29    27    28    1
    30    28    23    1
    31     5     1   ar
    32    18    13   ar
    33    12     6   ar
@<TRIPOS>MOLECULE
*****
 30 33 0 0 0
SMALL
GASTEIGER

@<TRIPOS>ATOM
      1 C         142.2743  137.8305  158.1244 C.ar    1  UNL1        0.0966
      2 C         142.8675  137.5400  159.4712 C.ar    1  UNL1        0.0370
      3 C         142.1603  138.3925  160.4828 C.ar    1  UNL1        0.0840
      4 N         141.1300  139.2098  159.7612 N.ar    1  UNL1       -0.2299
      5 N         141.2005  138.8625  158.3036 N.ar    1  UNL1       -0.1681
      6 C         140.1938  140.2004  160.3871 C.ar    1  UNL1        0.0829
      7 C         138.8326  139.7629  160.8407 C.ar    1  UNL1        0.0215
      8 C         137.8963  140.7536  161.4667 C.ar    1  UNL1        0.0312
      9 C         138.3211  142.1818  161.6392 C.ar    1  UNL1        0.1402
     10 F         137.3848  143.1725  162.2652 F       1  UNL1       -0.2042
     11 C         139.6824  142.6194  161.1856 C.ar    1  UNL1        0.0312
     12 C         140.6186  141.6286  160.5596 C.ar    1  UNL1        0.0215
     13 C         142.4350  138.4224  161.9571 C.ar    1  UNL1        0.0177
     14 C         143.6599  139.1139  162.4778 C.ar    1  UNL1        0.0012
     15 C         143.9347  139.1438  163.9521 C.ar    1  UNL1       -0.0042
     16 C         142.9846  138.4821  164.9057 C.ar    1  UNL1       -0.0225
     17 C         141.7596  137.7906  164.3849 C.ar    1  UNL1       -0.0042
     18 C         141.4848  137.7607  162.9106 C.ar    1  UNL1        0.0012
     19 C         143.2594  138.5120  166.3800 C.3     1  UNL1        0.0224
     20 C         144.2409  137.5492  166.9796 C.3     1  UNL1        0.0047
     21 C         142.5526  139.5047  167.2546 C.3     1  UNL1        0.0047
     22 C         142.6831  137.1998  156.8263 C.3     1  UNL1        0.1205
     23 C         142.4840  132.7312  156.3348 C.3     1  UNL1        0.1181
     24 C         141.6202  133.6181  155.4879 C.3     1  UNL1        0.0469
     25 C         141.6866  135.1076  155.6518 C.3     1  UNL1        0.0749
     26 N         142.6168  135.7103  156.6625 N.3     1  UNL1       -0.2675
     27 C         143.4805  134.8234  157.5093 C.3     1  UNL1        0.0749
     28 C         143.4142  133.3338  157.3455 C.3     1  UNL1        0.0469
     29 C         143.1832  130.3497  157.1028 C.3     1  UNL1        0.1740
     30 O         142.4176  131.2416  156.1710 O.3     1  UNL1       -0.3535
@<TRIPOS>BOND
     1    29    30    1
     2    30    23    1
     3    23    24    1
     4    24    25    1
     5    25    26    1
     6    26    22    1
     7    22     1    1
     8     1     2   ar
     9     2     3   ar
    10     3    13    1
    11    13    14   ar
    12    14    15   ar
    13    15    16   ar
    14    16    19    1
    15    19    20    1
    16    19    21    1
    17    16    17   ar
    18    17    18   ar
    19     3     4   ar
    20     4     6    1
    21     6     7   ar
    22     7     8   ar
    23     8     9   ar
    24     9    10    1
    25     9    11   ar
    26    11    12   ar
    27     4     5   ar
    28    26    27    1
    29    27    28    1
    30    28    23    1
    31     5     1   ar
    32    18    13   ar
    33    12     6   ar
@<TRIPOS>MOLECULE
*****
 30 33 0 0 0
SMALL
GASTEIGER

@<TRIPOS>ATOM
      1 C         143.3642  141.2832  161.4425 C.ar    1  UNL1        0.0966
      2 C         143.7246  140.7310  162.7899 C.ar    1  UNL1        0.0370
      3 C         142.7076  141.2200  163.7783 C.ar    1  UNL1        0.0840
      4 N         141.7188  142.0743  163.0418 N.ar    1  UNL1       -0.2299
      5 N         142.1246  142.1134  161.5983 N.ar    1  UNL1       -0.1681
      6 C         140.5326  142.7678  163.6432 C.ar    1  UNL1        0.0829
      7 C         140.6308  144.2096  164.0450 C.ar    1  UNL1        0.0215
      8 C         139.4445  144.9031  164.6465 C.ar    1  UNL1        0.0312
      9 C         138.1599  144.1548  164.8462 C.ar    1  UNL1        0.1402
     10 F         136.9736  144.8483  165.4476 F       1  UNL1       -0.2042
     11 C         138.0617  142.7129  164.4444 C.ar    1  UNL1        0.0312
     12 C         139.2480  142.0195  163.8429 C.ar    1  UNL1        0.0215
     13 C         142.6837  140.9091  165.2455 C.ar    1  UNL1        0.0177
     14 C         142.7791  142.0197  166.2491 C.ar    1  UNL1        0.0012
     15 C         142.7552  141.7089  167.7163 C.ar    1  UNL1       -0.0042
     16 C         142.6359  140.2874  168.1800 C.ar    1  UNL1       -0.0225
     17 C         142.5405  139.1767  167.1764 C.ar    1  UNL1       -0.0042
     18 C         142.5644  139.4876  165.7091 C.ar    1  UNL1        0.0012
     19 C         142.6120  139.9766  169.6472 C.3     1  UNL1        0.0224
     20 C         142.7330  138.5565  170.1151 C.3     1  UNL1        0.0047
     21 C         142.4671  141.0858  170.6466 C.3     1  UNL1        0.0047
     22 C         144.1122  141.0468  160.1640 C.3     1  UNL1        0.1205
     23 C         142.7334  137.8540  157.3082 C.3     1  UNL1        0.1181
     24 C         142.6989  137.6035  158.7867 C.3     1  UNL1        0.0469
     25 C         143.1585  138.6678  159.7386 C.3     1  UNL1        0.0749
     26 N         143.6526  139.9825  159.2121 N.3     1  UNL1       -0.2675
     27 C         143.6870  140.2330  157.7336 C.3     1  UNL1        0.0749
     28 C         143.2275  139.1688  156.7816 C.3     1  UNL1        0.0469
     29 C         142.8145  135.3955  156.4723 C.3     1  UNL1        0.1740
     30 O         142.2738  136.7898  156.3563 O.3     1  UNL1       -0.3535
@<TRIPOS>BOND
     1    29    30    1
     2    30    23    1
     3    23    24    1
     4    24    25    1
     5    25    26    1
     6    26    22    1
     7    22     1    1
     8     1     2   ar
     9     2     3   ar
    10     3    13    1
    11    13    14   ar
    12    14    15   ar
    13    15    16   ar
    14    16    19    1
    15    19    20    1
    16    19    21    1
    17    16    17   ar
    18    17    18   ar
    19     3     4   ar
    20     4     6    1
    21     6     7   ar
    22     7     8   ar
    23     8     9   ar
    24     9    10    1
    25     9    11   ar
    26    11    12   ar
    27     4     5   ar
    28    26    27    1
    29    27    28    1
    30    28    23    1
    31     5     1   ar
    32    18    13   ar
    33    12     6   ar
@<TRIPOS>MOLECULE
*****
 30 33 0 0 0
SMALL
GASTEIGER

@<TRIPOS>ATOM
      1 C         141.2652  142.5188  162.0684 C.ar    1  UNL1        0.0966
      2 C         141.7574  143.0309  163.3896 C.ar    1  UNL1        0.0370
      3 C         141.2400  142.1188  164.4623 C.ar    1  UNL1        0.0840
      4 N         140.4280  141.0429  163.8040 N.ar    1  UNL1       -0.2299
      5 N         140.4435  141.2901  162.3246 N.ar    1  UNL1       -0.1681
      6 C         139.7241  139.9176  164.5024 C.ar    1  UNL1        0.0829
      7 C         138.5845  140.2086  165.4334 C.ar    1  UNL1        0.0215
      8 C         137.8806  139.0831  166.1319 C.ar    1  UNL1        0.0312
      9 C         138.3162  137.6667  165.8995 C.ar    1  UNL1        0.1402
     10 F         137.6123  136.5413  166.5980 F       1  UNL1       -0.2042
     11 C         139.4559  137.3757  164.9685 C.ar    1  UNL1        0.0312
     12 C         140.1597  138.5012  164.2700 C.ar    1  UNL1        0.0215
     13 C         141.4906  142.2581  165.9346 C.ar    1  UNL1        0.0177
     14 C         142.8223  141.8743  166.5083 C.ar    1  UNL1        0.0012
     15 C         143.0729  142.0136  167.9806 C.ar    1  UNL1       -0.0042
     16 C         141.9919  142.5366  168.8792 C.ar    1  UNL1       -0.0225
     17 C         140.6601  142.9205  168.3055 C.ar    1  UNL1       -0.0042
     18 C         140.4095  142.7812  166.8332 C.ar    1  UNL1        0.0012
     19 C         142.2425  142.6759  170.3515 C.3     1  UNL1        0.0224
     20 C         143.3524  143.5570  170.8434 C.3     1  UNL1        0.0047
     21 C         141.3832  141.9341  171.3320 C.3     1  UNL1        0.0047
     22 C         141.5453  143.1282  160.7268 C.3     1  UNL1        0.1205
     23 C         144.2480  141.0142  157.8153 C.3     1  UNL1        0.1181
     24 C         144.7396  142.2248  158.5519 C.3     1  UNL1        0.0469
     25 C         143.8387  142.9295  159.5224 C.3     1  UNL1        0.0749
     26 N         142.4462  142.4235  159.7563 N.3     1  UNL1       -0.2675
     27 C         141.9545  141.2129  159.0197 C.3     1  UNL1        0.0749
     28 C         142.8554  140.5083  158.0492 C.3     1  UNL1        0.0469
     29 C         145.3971  140.8990  155.4880 C.3     1  UNL1        0.1740
     30 O         145.1489  140.3096  156.8448 O.3     1  UNL1       -0.3535
@<TRIPOS>BOND
     1    29    30    1
     2    30    23    1
     3    23    24    1
     4    24    25    1
     5    25    26    1
     6    26    22    1
     7    22     1    1
     8     1     2   ar
     9     2     3   ar
    10     3    13    1
    11    13    14   ar
    12    14    15   ar
    13    15    16   ar
    14    16    19    1
    15    19    20    1
    16    19    21    1
    17    16    17   ar
    18    17    18   ar
    19     3     4   ar
    20     4     6    1
    21     6     7   ar
    22     7     8   ar
    23     8     9   ar
    24     9    10    1
    25     9    11   ar
    26    11    12   ar
    27     4     5   ar
    28    26    27    1
    29    27    28    1
    30    28    23    1
    31     5     1   ar
    32    18    13   ar
    33    12     6   ar
@<TRIPOS>MOLECULE
*****
 30 33 0 0 0
SMALL
GASTEIGER

@<TRIPOS>ATOM
      1 C         143.5567  141.3479  161.5416 C.ar    1  UNL1        0.0966
      2 C         143.8848  140.7772  162.8894 C.ar    1  UNL1        0.0370
      3 C         142.8277  141.2281  163.8536 C.ar    1  UNL1        0.0840
      4 N         141.8464  142.0775  163.1015 N.ar    1  UNL1       -0.2299
      5 N         142.2968  142.1515  161.6727 N.ar    1  UNL1       -0.1681
      6 C         140.6284  142.7371  163.6772 C.ar    1  UNL1        0.0829
      7 C         140.6781  144.1802  164.0831 C.ar    1  UNL1        0.0215
      8 C         139.4601  144.8398  164.6588 C.ar    1  UNL1        0.0312
      9 C         138.1924  144.0562  164.8287 C.ar    1  UNL1        0.1402
     10 F         136.9744  144.7158  165.4044 F       1  UNL1       -0.2042
     11 C         138.1426  142.6129  164.4227 C.ar    1  UNL1        0.0312
     12 C         139.3607  141.9535  163.8470 C.ar    1  UNL1        0.0215
     13 C         142.7634  140.8892  165.3134 C.ar    1  UNL1        0.0177
     14 C         142.7119  139.4548  165.7487 C.ar    1  UNL1        0.0012
     15 C         142.6475  139.1159  167.2085 C.ar    1  UNL1       -0.0042
     16 C         142.6347  140.2114  168.2329 C.ar    1  UNL1       -0.0225
     17 C         142.6862  141.6459  167.7976 C.ar    1  UNL1       -0.0042
     18 C         142.7505  141.9849  166.3378 C.ar    1  UNL1        0.0012
     19 C         142.5703  139.8725  169.6927 C.3     1  UNL1        0.0224
     20 C         142.8141  138.4639  170.1471 C.3     1  UNL1        0.0047
     21 C         142.2623  140.9422  170.6981 C.3     1  UNL1        0.0047
     22 C         144.3492  141.1497  160.2836 C.3     1  UNL1        0.1205
     23 C         142.8469  138.3522  157.0950 C.3     1  UNL1        0.1181
     24 C         143.5242  139.6339  156.7098 C.3     1  UNL1        0.0469
     25 C         144.0250  140.5664  157.7727 C.3     1  UNL1        0.0749
     26 N         143.8484  140.2172  159.2207 N.3     1  UNL1       -0.2675
     27 C         143.1710  138.9355  159.6059 C.3     1  UNL1        0.0749
     28 C         142.6702  138.0030  158.5430 C.3     1  UNL1        0.0469
     29 C         141.1354  136.5718  156.2879 C.3     1  UNL1        0.1740
     30 O         142.3461  137.4197  156.0322 O.3     1  UNL1       -0.3535
@<TRIPOS>BOND
     1    29    30    1
     2    30    23    1
     3    23    24    1
     4    24    25    1
     5    25    26    1
     6    26    22    1
     7    22     1    1
     8     1     2   ar
     9     2     3   ar
    10     3    13    1
    11    13    14   ar
    12    14    15   ar
    13    15    16   ar
    14    16    19    1
    15    19    20    1
    16    19    21    1
    17    16    17   ar
    18    17    18   ar
    19     3     4   ar
    20     4     6    1
    21     6     7   ar
    22     7     8   ar
    23     8     9   ar
    24     9    10    1
    25     9    11   ar
    26    11    12   ar
    27     4     5   ar
    28    26    27    1
    29    27    28    1
    30    28    23    1
    31     5     1   ar
    32    18    13   ar
    33    12     6   ar
@<TRIPOS>MOLECULE
*****
 30 33 0 0 0
SMALL
GASTEIGER

@<TRIPOS>ATOM
      1 C         142.4293  138.7482  161.7782 C.ar    1  UNL1        0.0966
      2 C         143.0067  138.8006  163.1616 C.ar    1  UNL1        0.0370
      3 C         142.2246  139.8071  163.9526 C.ar    1  UNL1        0.0840
      4 N         141.1639  140.3767  163.0579 N.ar    1  UNL1       -0.2299
      5 N         141.2904  139.7223  161.7141 N.ar    1  UNL1       -0.1681
      6 C         140.1540  141.4179  163.4399 C.ar    1  UNL1        0.0829
      7 C         140.4328  142.8671  163.1719 C.ar    1  UNL1        0.0215
      8 C         139.4229  143.9083  163.5539 C.ar    1  UNL1        0.0312
      9 C         138.1341  143.5003  164.2040 C.ar    1  UNL1        0.1402
     10 F         137.1242  144.5415  164.5861 F       1  UNL1       -0.2042
     11 C         137.8553  142.0509  164.4721 C.ar    1  UNL1        0.0312
     12 C         138.8653  141.0098  164.0900 C.ar    1  UNL1        0.0215
     13 C         142.4617  140.1787  165.3863 C.ar    1  UNL1        0.0177
     14 C         142.7544  141.6032  165.7534 C.ar    1  UNL1        0.0012
     15 C         142.9915  141.9748  167.1871 C.ar    1  UNL1       -0.0042
     16 C         142.9358  140.9218  168.2539 C.ar    1  UNL1       -0.0225
     17 C         142.6430  139.4972  167.8868 C.ar    1  UNL1       -0.0042
     18 C         142.4059  139.1256  166.4531 C.ar    1  UNL1        0.0012
     19 C         143.1728  141.2934  169.6876 C.3     1  UNL1        0.0224
     20 C         144.0527  142.4606  170.0243 C.3     1  UNL1        0.0047
     21 C         142.5299  140.4977  170.7847 C.3     1  UNL1        0.0047
     22 C         142.9069  137.8751  160.6559 C.3     1  UNL1        0.1205
     23 C         143.6212  139.6408  156.5789 C.3     1  UNL1        0.1181
     24 C         143.9980  140.4141  157.8076 C.3     1  UNL1        0.0469
     25 C         143.7599  139.8256  159.1667 C.3     1  UNL1        0.0749
     26 N         143.1450  138.4637  159.2969 N.3     1  UNL1       -0.2675
     27 C         142.7683  137.6903  158.0682 C.3     1  UNL1        0.0749
     28 C         143.0064  138.2788  156.7092 C.3     1  UNL1        0.0469
     29 C         145.1244  139.9152  154.4777 C.3     1  UNL1        0.1740
     30 O         143.8593  140.2293  155.2199 O.3     1  UNL1       -0.3535
@<TRIPOS>BOND
     1    29    30    1
     2    30    23    1
     3    23    24    1
     4    24    25    1
     5    25    26    1
     6    26    22    1
     7    22     1    1
     8     1     2   ar
     9     2     3   ar
    10     3    13    1
    11    13    14   ar
    12    14    15   ar
    13    15    16   ar
    14    16    19    1
    15    19    20    1
    16    19    21    1
    17    16    17   ar
    18    17    18   ar
    19     3     4   ar
    20     4     6    1
    21     6     7   ar
    22     7     8   ar
    23     8     9   ar
    24     9    10    1
    25     9    11   ar
    26    11    12   ar
    27     4     5   ar
    28    26    27    1
    29    27    28    1
    30    28    23    1
    31     5     1   ar
    32    18    13   ar
    33    12     6   ar
