@<TRIPOS>MOLECULE
*****
 34 37 0 0 0
SMALL
GASTEIGER

@<TRIPOS>ATOM
      1 C         139.3777  139.1358  163.3430 C.ar    1  UNL1        0.0514
      2 C         139.1332  137.9946  164.2852 C.ar    1  UNL1        0.0149
      3 C         139.0102  138.2511  165.7579 C.ar    1  UNL1        0.0068
      4 C         139.1317  139.6488  166.2885 C.ar    1  UNL1        0.0658
      5 C         139.3763  140.7901  165.3464 C.ar    1  UNL1        0.0634
      6 CL        139.4978  142.1878  165.8770 Cl      1  UNL1       -0.0820
      7 C         139.4993  140.5336  163.8736 C.ar    1  UNL1        0.0262
      8 C         139.0087  139.9053  167.7614 C.ar    1  UNL1        0.2520
      9 N         137.9989  139.2875  168.6826 N.ar    1  UNL1       -0.1058
     10 N         138.2399  139.8249  170.0621 N.ar    1  UNL1       -0.0923
     11 C         139.3988  140.7749  169.9934 C.ar    1  UNL1        0.3086
     12 O         139.8739  140.8245  168.5716 O.2     1  UNL1       -0.4048
     13 N         139.9804  141.5407  171.1447 N.pl3   1  UNL1       -0.2871
     14 H         139.4178  141.7656  171.9207 H       1  UNL1        0.1512
     15 C         141.4191  141.9639  171.1135 C.3     1  UNL1        0.0925
     16 C         141.9363  142.7795  169.9657 C.3     1  UNL1        0.0386
     17 C         143.1739  142.3477  169.2365 C.3     1  UNL1        0.0738
     18 N         143.0615  141.4915  168.0101 N.3     1  UNL1       -0.2726
     19 C         143.1223  142.1190  166.6490 C.3     1  UNL1        0.0721
     20 C         143.0098  141.2628  165.4226 C.3     1  UNL1        0.0174
     21 C         142.8367  139.7789  165.5572 C.3     1  UNL1        0.0029
     22 C         142.7759  139.1514  166.9182 C.3     1  UNL1        0.0174
     23 C         142.8883  140.0076  168.1447 C.3     1  UNL1        0.0721
     24 O         142.0887  138.8313  162.0947 O.2     1  UNL1       -0.2697
     25 C         140.8562  138.7271  161.2461 C.2     1  UNL1        0.2517
     26 N         139.5008  138.8794  161.8702 N.am    1  UNL1       -0.2803
     27 H         138.6919  138.8110  161.3132 H       1  UNL1        0.1552
     28 C         140.9792  138.4706  159.7732 C.ar    1  UNL1        0.0811
     29 C         139.7679  138.5583  158.8929 C.ar    1  UNL1        0.0068
     30 C         139.8910  138.3019  157.4202 C.ar    1  UNL1        0.0003
     31 C         141.2253  137.9577  156.8277 C.ar    1  UNL1        0.0023
     32 C         142.4367  137.8700  157.7080 C.ar    1  UNL1        0.0298
     33 C         142.3136  138.1265  159.1808 C.ar    1  UNL1        0.1445
     34 F         143.5249  138.0388  160.0612 F       1  UNL1       -0.2040
@<TRIPOS>BOND
     1    24    25    2
     2    25    26   am
     3    26     1    1
     4     1     2   ar
     5     2     3   ar
     6     3     4   ar
     7     4     8    1
     8     8     9   ar
     9     9    10   ar
    10    10    11   ar
    11    11    13    1
    12    13    15    1
    13    15    16    1
    14    16    17    1
    15    17    18    1
    16    18    19    1
    17    19    20    1
    18    20    21    1
    19    21    22    1
    20    22    23    1
    21    11    12   ar
    22     4     5   ar
    23     5     6    1
    24     5     7   ar
    25    25    28    1
    26    28    29   ar
    27    29    30   ar
    28    30    31   ar
    29    31    32   ar
    30    32    33   ar
    31    33    34    1
    32     7     1   ar
    33    33    28   ar
    34    12     8   ar
    35    23    18    1
    36    26    27    1
    37    13    14    1
@<TRIPOS>MOLECULE
*****
 34 37 0 0 0
SMALL
GASTEIGER

@<TRIPOS>ATOM
      1 C         142.5210  138.9159  169.8900 C.ar    1  UNL1        0.0514
      2 C         143.0301  138.9812  168.4806 C.ar    1  UNL1        0.0149
      3 C         142.1944  139.6180  167.4101 C.ar    1  UNL1        0.0068
      4 C         140.8496  140.1894  167.7490 C.ar    1  UNL1        0.0658
      5 C         140.3404  140.1241  169.1584 C.ar    1  UNL1        0.0634
      6 CL        138.9956  140.6955  169.4973 Cl      1  UNL1       -0.0820
      7 C         141.1761  139.4873  170.2289 C.ar    1  UNL1        0.0262
      8 C         140.0138  140.8262  166.6784 C.ar    1  UNL1        0.2520
      9 N         140.0221  142.2777  166.2999 N.ar    1  UNL1       -0.1058
     10 N         139.0365  142.4719  165.1860 N.ar    1  UNL1       -0.0923
     11 C         138.4192  141.1404  164.8759 C.ar    1  UNL1        0.3086
     12 O         139.0232  140.1234  165.7983 O.2     1  UNL1       -0.4048
     13 N         137.3802  140.8730  163.8275 N.pl3   1  UNL1       -0.2871
     14 H         136.5075  140.4963  164.0841 H       1  UNL1        0.1512
     15 C         137.6708  141.1794  162.3882 C.3     1  UNL1        0.0925
     16 C         137.6094  140.0874  161.3617 C.3     1  UNL1        0.0386
     17 C         138.7985  139.2012  161.1373 C.3     1  UNL1        0.0738
     18 N         139.5772  138.6802  162.3087 N.3     1  UNL1       -0.2726
     19 C         138.9665  137.6575  163.2204 C.3     1  UNL1        0.0721
     20 C         139.7452  137.1366  164.3917 C.3     1  UNL1        0.0174
     21 C         141.1347  137.6382  164.6514 C.3     1  UNL1        0.0029
     22 C         141.7456  138.6608  163.7398 C.3     1  UNL1        0.0174
     23 C         140.9668  139.1818  162.5684 C.3     1  UNL1        0.0721
     24 O         144.2790  136.5767  169.2281 O.2     1  UNL1       -0.2697
     25 C         144.2357  137.1095  170.6297 C.2     1  UNL1        0.2517
     26 N         143.3567  138.2791  170.9606 N.am    1  UNL1       -0.2803
     27 H         143.3283  138.6288  171.8805 H       1  UNL1        0.1552
     28 C         145.0714  136.4727  171.7003 C.ar    1  UNL1        0.0811
     29 C         145.9138  137.3263  172.6012 C.ar    1  UNL1        0.0068
     30 C         146.7495  136.6895  173.6718 C.ar    1  UNL1        0.0003
     31 C         146.7428  135.1991  173.8413 C.ar    1  UNL1        0.0023
     32 C         145.9004  134.3456  172.9404 C.ar    1  UNL1        0.0298
     33 C         145.0647  134.9824  171.8698 C.ar    1  UNL1        0.1445
     34 F         144.2223  134.1288  170.9688 F       1  UNL1       -0.2040
@<TRIPOS>BOND
     1    24    25    2
     2    25    26   am
     3    26     1    1
     4     1     2   ar
     5     2     3   ar
     6     3     4   ar
     7     4     8    1
     8     8     9   ar
     9     9    10   ar
    10    10    11   ar
    11    11    13    1
    12    13    15    1
    13    15    16    1
    14    16    17    1
    15    17    18    1
    16    18    19    1
    17    19    20    1
    18    20    21    1
    19    21    22    1
    20    22    23    1
    21    11    12   ar
    22     4     5   ar
    23     5     6    1
    24     5     7   ar
    25    25    28    1
    26    28    29   ar
    27    29    30   ar
    28    30    31   ar
    29    31    32   ar
    30    32    33   ar
    31    33    34    1
    32     7     1   ar
    33    33    28   ar
    34    12     8   ar
    35    23    18    1
    36    26    27    1
    37    13    14    1
@<TRIPOS>MOLECULE
*****
 34 37 0 0 0
SMALL
GASTEIGER

@<TRIPOS>ATOM
      1 C         139.4329  138.7525  161.9282 C.ar    1  UNL1        0.0514
      2 C         139.6522  137.5642  162.8168 C.ar    1  UNL1        0.0149
      3 C         139.3491  137.6578  164.2828 C.ar    1  UNL1        0.0068
      4 C         138.8267  138.9399  164.8603 C.ar    1  UNL1        0.0658
      5 C         138.6074  140.1282  163.9717 C.ar    1  UNL1        0.0634
      6 CL        138.0850  141.4103  164.5492 Cl      1  UNL1       -0.0820
      7 C         138.9105  140.0346  162.5057 C.ar    1  UNL1        0.0262
      8 C         138.5236  139.0335  166.3264 C.ar    1  UNL1        0.2520
      9 N         137.3627  138.3944  167.0293 N.ar    1  UNL1       -0.1058
     10 N         137.4497  138.7485  168.4843 N.ar    1  UNL1       -0.0923
     11 C         138.6644  139.6065  168.6806 C.ar    1  UNL1        0.3086
     12 O         139.3280  139.7826  167.3470 O.2     1  UNL1       -0.4048
     13 N         139.1331  140.1866  169.9821 N.pl3   1  UNL1       -0.2871
     14 H         138.4785  140.5332  170.6307 H       1  UNL1        0.1512
     15 C         140.5991  140.2385  170.2954 C.3     1  UNL1        0.0925
     16 C         141.4738  141.2558  169.6245 C.3     1  UNL1        0.0386
     17 C         142.7148  140.8193  168.9038 C.3     1  UNL1        0.0738
     18 N         142.6378  140.3956  167.4670 N.3     1  UNL1       -0.2726
     19 C         142.9310  138.9744  167.0874 C.3     1  UNL1        0.0721
     20 C         142.8541  138.5507  165.6506 C.3     1  UNL1        0.0174
     21 C         142.4839  139.5482  164.5933 C.3     1  UNL1        0.0029
     22 C         142.1907  140.9694  164.9729 C.3     1  UNL1        0.0174
     23 C         142.2676  141.3931  166.4097 C.3     1  UNL1        0.0721
     24 O         142.2328  139.1916  160.9442 O.2     1  UNL1       -0.2697
     25 C         141.1359  138.8785  159.9701 C.2     1  UNL1        0.2517
     26 N         139.7360  138.6589  160.4621 N.am    1  UNL1       -0.2803
     27 H         139.0161  138.4534  159.8227 H       1  UNL1        0.1552
     28 C         141.4390  138.7848  158.5040 C.ar    1  UNL1        0.0811
     29 C         140.7727  139.7202  157.5392 C.ar    1  UNL1        0.0068
     30 C         141.0758  139.6265  156.0731 C.ar    1  UNL1        0.0003
     31 C         142.0453  138.5975  155.5720 C.ar    1  UNL1        0.0023
     32 C         142.7117  137.6622  156.5368 C.ar    1  UNL1        0.0298
     33 C         142.4085  137.7558  158.0028 C.ar    1  UNL1        0.1445
     34 F         143.0749  136.8204  158.9678 F       1  UNL1       -0.2040
@<TRIPOS>BOND
     1    24    25    2
     2    25    26   am
     3    26     1    1
     4     1     2   ar
     5     2     3   ar
     6     3     4   ar
     7     4     8    1
     8     8     9   ar
     9     9    10   ar
    10    10    11   ar
    11    11    13    1
    12    13    15    1
    13    15    16    1
    14    16    17    1
    15    17    18    1
    16    18    19    1
    17    19    20    1
    18    20    21    1
    19    21    22    1
    20    22    23    1
    21    11    12   ar
    22     4     5   ar
    23     5     6    1
    24     5     7   ar
    25    25    28    1
    26    28    29   ar
    27    29    30   ar
    28    30    31   ar
    29    31    32   ar
    30    32    33   ar
    31    33    34    1
    32     7     1   ar
    33    33    28   ar
    34    12     8   ar
    35    23    18    1
    36    26    27    1
    37    13    14    1
@<TRIPOS>MOLECULE
*****
 34 37 0 0 0
SMALL
GASTEIGER

@<TRIPOS>ATOM
      1 C         140.0730  141.7371  161.5508 C.ar    1  UNL1        0.0514
      2 C         140.7853  140.5268  162.0778 C.ar    1  UNL1        0.0149
      3 C         140.4564  139.9980  163.4424 C.ar    1  UNL1        0.0068
      4 C         139.4152  140.6794  164.2799 C.ar    1  UNL1        0.0658
      5 C         138.7028  141.8896  163.7529 C.ar    1  UNL1        0.0634
      6 CL        137.6616  142.5711  164.5904 Cl      1  UNL1       -0.0820
      7 C         139.0317  142.4185  162.3883 C.ar    1  UNL1        0.0262
      8 C         139.0862  140.1505  165.6445 C.ar    1  UNL1        0.2520
      9 N         138.1218  139.0436  165.9522 N.ar    1  UNL1       -0.1058
     10 N         138.1035  138.8446  167.4388 N.ar    1  UNL1       -0.0923
     11 C         139.0567  139.8285  168.0499 C.ar    1  UNL1        0.3086
     12 O         139.6640  140.6356  166.9410 O.2     1  UNL1       -0.4048
     13 N         139.3508  139.9790  169.5131 N.pl3   1  UNL1       -0.2871
     14 H         139.2542  139.2071  170.1166 H       1  UNL1        0.1512
     15 C         139.7922  141.3054  170.0569 C.3     1  UNL1        0.0925
     16 C         141.1075  141.4242  170.7682 C.3     1  UNL1        0.0386
     17 C         142.3145  140.7091  170.2375 C.3     1  UNL1        0.0738
     18 N         142.5846  140.6867  168.7623 N.3     1  UNL1       -0.2726
     19 C         142.7491  141.9741  168.0102 C.3     1  UNL1        0.0721
     20 C         143.0192  141.9517  166.5350 C.3     1  UNL1        0.0174
     21 C         143.1248  140.6419  165.8116 C.3     1  UNL1        0.0029
     22 C         142.9603  139.3545  166.5636 C.3     1  UNL1        0.0174
     23 C         142.6902  139.3769  168.0389 C.3     1  UNL1        0.0721
     24 O         141.5803  144.3151  161.2643 O.2     1  UNL1       -0.2697
     25 C         141.1555  143.5550  160.0429 C.2     1  UNL1        0.2517
     26 N         140.4019  142.2660  160.1861 N.am    1  UNL1       -0.2803
     27 H         140.1232  141.7671  159.3845 H       1  UNL1        0.1552
     28 C         141.4844  144.0839  158.6783 C.ar    1  UNL1        0.0811
     29 C         142.4111  143.3187  157.7807 C.ar    1  UNL1        0.0068
     30 C         142.7399  143.8476  156.4161 C.ar    1  UNL1        0.0003
     31 C         142.1422  145.1417  155.9492 C.ar    1  UNL1        0.0023
     32 C         141.2155  145.9069  156.8468 C.ar    1  UNL1        0.0298
     33 C         140.8867  145.3780  158.2114 C.ar    1  UNL1        0.1445
     34 F         139.9600  146.1431  159.1091 F       1  UNL1       -0.2040
@<TRIPOS>BOND
     1    24    25    2
     2    25    26   am
     3    26     1    1
     4     1     2   ar
     5     2     3   ar
     6     3     4   ar
     7     4     8    1
     8     8     9   ar
     9     9    10   ar
    10    10    11   ar
    11    11    13    1
    12    13    15    1
    13    15    16    1
    14    16    17    1
    15    17    18    1
    16    18    19    1
    17    19    20    1
    18    20    21    1
    19    21    22    1
    20    22    23    1
    21    11    12   ar
    22     4     5   ar
    23     5     6    1
    24     5     7   ar
    25    25    28    1
    26    28    29   ar
    27    29    30   ar
    28    30    31   ar
    29    31    32   ar
    30    32    33   ar
    31    33    34    1
    32     7     1   ar
    33    33    28   ar
    34    12     8   ar
    35    23    18    1
    36    26    27    1
    37    13    14    1
@<TRIPOS>MOLECULE
*****
 34 37 0 0 0
SMALL
GASTEIGER

@<TRIPOS>ATOM
      1 C         141.2283  143.5113  164.1678 C.ar    1  UNL1        0.0514
      2 C         141.8378  142.5925  163.1509 C.ar    1  UNL1        0.0149
      3 C         141.7780  142.9418  161.6934 C.ar    1  UNL1        0.0068
      4 C         141.1086  144.2098  161.2528 C.ar    1  UNL1        0.0658
      5 C         140.4991  145.1285  162.2698 C.ar    1  UNL1        0.0634
      6 CL        139.8297  146.3965  161.8292 Cl      1  UNL1       -0.0820
      7 C         140.5589  144.7793  163.7273 C.ar    1  UNL1        0.0262
      8 C         141.0488  144.5590  159.7952 C.ar    1  UNL1        0.2520
      9 N         141.9357  145.5394  159.0864 N.ar    1  UNL1       -0.1058
     10 N         141.5267  145.5755  157.6437 N.ar    1  UNL1       -0.0923
     11 C         140.3870  144.6174  157.4609 C.ar    1  UNL1        0.3086
     12 O         140.0918  143.9892  158.7906 O.2     1  UNL1       -0.4048
     13 N         139.6688  144.3368  156.1742 N.pl3   1  UNL1       -0.2871
     14 H         139.8399  143.4982  155.6877 H       1  UNL1        0.1512
     15 C         138.6899  145.3339  155.6288 C.3     1  UNL1        0.0925
     16 C         139.1742  146.6593  155.1201 C.3     1  UNL1        0.0386
     17 C         138.8770  147.9121  155.8897 C.3     1  UNL1        0.0738
     18 N         138.9774  149.2481  155.2155 N.3     1  UNL1       -0.2726
     19 C         138.4138  150.4685  155.8811 C.3     1  UNL1        0.0721
     20 C         138.5141  151.8045  155.2068 C.3     1  UNL1        0.0174
     21 C         139.1782  151.9204  153.8668 C.3     1  UNL1        0.0029
     22 C         139.7419  150.7001  153.2012 C.3     1  UNL1        0.0174
     23 C         139.6415  149.3640  153.8755 C.3     1  UNL1        0.0721
     24 O         138.9998  141.9476  165.4284 O.2     1  UNL1       -0.2697
     25 C         140.1738  142.3802  166.2557 C.2     1  UNL1        0.2517
     26 N         141.2881  143.1620  165.6254 N.am    1  UNL1       -0.2803
     27 H         142.0586  143.4460  166.1684 H       1  UNL1        0.1552
     28 C         140.2336  142.0310  167.7133 C.ar    1  UNL1        0.0811
     29 C         140.3757  143.1160  168.7392 C.ar    1  UNL1        0.0068
     30 C         140.4355  142.7667  170.1967 C.ar    1  UNL1        0.0003
     31 C         140.3532  141.3325  170.6283 C.ar    1  UNL1        0.0023
     32 C         140.2112  140.2475  169.6024 C.ar    1  UNL1        0.0298
     33 C         140.1514  140.5968  168.1448 C.ar    1  UNL1        0.1445
     34 F         140.0093  139.5118  167.1188 F       1  UNL1       -0.2040
@<TRIPOS>BOND
     1    24    25    2
     2    25    26   am
     3    26     1    1
     4     1     2   ar
     5     2     3   ar
     6     3     4   ar
     7     4     8    1
     8     8     9   ar
     9     9    10   ar
    10    10    11   ar
    11    11    13    1
    12    13    15    1
    13    15    16    1
    14    16    17    1
    15    17    18    1
    16    18    19    1
    17    19    20    1
    18    20    21    1
    19    21    22    1
    20    22    23    1
    21    11    12   ar
    22     4     5   ar
    23     5     6    1
    24     5     7   ar
    25    25    28    1
    26    28    29   ar
    27    29    30   ar
    28    30    31   ar
    29    31    32   ar
    30    32    33   ar
    31    33    34    1
    32     7     1   ar
    33    33    28   ar
    34    12     8   ar
    35    23    18    1
    36    26    27    1
    37    13    14    1
@<TRIPOS>MOLECULE
*****
 34 37 0 0 0
SMALL
GASTEIGER

@<TRIPOS>ATOM
      1 C         142.9743  142.7271  158.4726 C.ar    1  UNL1        0.0514
      2 C         141.6292  142.2676  157.9934 C.ar    1  UNL1        0.0149
      3 C         140.4869  142.1564  158.9592 C.ar    1  UNL1        0.0068
      4 C         140.6896  142.5048  160.4040 C.ar    1  UNL1        0.0658
      5 C         142.0347  142.9642  160.8831 C.ar    1  UNL1        0.0634
      6 CL        142.2374  143.3126  162.3280 Cl      1  UNL1       -0.0820
      7 C         143.1770  143.0754  159.9174 C.ar    1  UNL1        0.0262
      8 C         139.5472  142.3936  161.3697 C.ar    1  UNL1        0.2520
      9 N         138.3213  143.2579  161.3885 N.ar    1  UNL1       -0.1058
     10 N         137.4466  142.7971  162.5166 N.ar    1  UNL1       -0.0923
     11 C         138.1318  141.6481  163.1949 C.ar    1  UNL1        0.3086
     12 O         139.4301  141.3987  162.4861 O.2     1  UNL1       -0.4048
     13 N         137.6104  140.8827  164.3750 N.pl3   1  UNL1       -0.2871
     14 H         136.6398  140.7888  164.5108 H       1  UNL1        0.1512
     15 C         138.5676  140.2606  165.3479 C.3     1  UNL1        0.0925
     16 C         138.3965  138.8274  165.7561 C.3     1  UNL1        0.0386
     17 C         139.0702  137.7392  164.9738 C.3     1  UNL1        0.0738
     18 N         139.5105  137.9925  163.5625 N.3     1  UNL1       -0.2726
     19 C         138.5106  137.9472  162.4453 C.3     1  UNL1        0.0721
     20 C         138.9509  138.2005  161.0340 C.3     1  UNL1        0.0174
     21 C         140.3911  138.4992  160.7397 C.3     1  UNL1        0.0029
     22 C         141.3910  138.5445  161.8569 C.3     1  UNL1        0.0174
     23 C         140.9507  138.2912  163.2683 C.3     1  UNL1        0.0721
     24 O         144.5370  140.2824  157.7097 O.2     1  UNL1       -0.2697
     25 C         144.8980  141.6159  157.1254 C.2     1  UNL1        0.2517
     26 N         144.1167  142.8382  157.5068 N.am    1  UNL1       -0.2803
     27 H         144.3537  143.7134  157.1233 H       1  UNL1        0.1552
     28 C         146.0405  141.7271  156.1597 C.ar    1  UNL1        0.0811
     29 C         145.9014  141.1855  154.7678 C.ar    1  UNL1        0.0068
     30 C         147.0438  141.2967  153.8022 C.ar    1  UNL1        0.0003
     31 C         148.3253  141.9495  154.2284 C.ar    1  UNL1        0.0023
     32 C         148.4644  142.4910  155.6203 C.ar    1  UNL1        0.0298
     33 C         147.3220  142.3798  156.5859 C.ar    1  UNL1        0.1445
     34 F         147.4611  142.9214  157.9779 F       1  UNL1       -0.2040
@<TRIPOS>BOND
     1    24    25    2
     2    25    26   am
     3    26     1    1
     4     1     2   ar
     5     2     3   ar
     6     3     4   ar
     7     4     8    1
     8     8     9   ar
     9     9    10   ar
    10    10    11   ar
    11    11    13    1
    12    13    15    1
    13    15    16    1
    14    16    17    1
    15    17    18    1
    16    18    19    1
    17    19    20    1
    18    20    21    1
    19    21    22    1
    20    22    23    1
    21    11    12   ar
    22     4     5   ar
    23     5     6    1
    24     5     7   ar
    25    25    28    1
    26    28    29   ar
    27    29    30   ar
    28    30    31   ar
    29    31    32   ar
    30    32    33   ar
    31    33    34    1
    32     7     1   ar
    33    33    28   ar
    34    12     8   ar
    35    23    18    1
    36    26    27    1
    37    13    14    1
@<TRIPOS>MOLECULE
*****
 34 37 0 0 0
SMALL
GASTEIGER

@<TRIPOS>ATOM
      1 C         142.6134  138.0913  158.2156 C.ar    1  UNL1        0.0514
      2 C         142.7230  139.5114  157.7455 C.ar    1  UNL1        0.0149
      3 C         143.1965  140.5787  158.6871 C.ar    1  UNL1        0.0068
      4 C         143.5604  140.2257  160.0989 C.ar    1  UNL1        0.0658
      5 C         143.4508  138.8055  160.5689 C.ar    1  UNL1        0.0634
      6 CL        143.8147  138.4526  161.9807 Cl      1  UNL1       -0.0820
      7 C         142.9773  137.7383  159.6273 C.ar    1  UNL1        0.0262
      8 C         144.0339  141.2930  161.0405 C.ar    1  UNL1        0.2520
      9 N         145.0808  141.1308  162.1025 N.ar    1  UNL1       -0.1058
     10 N         145.2377  142.4474  162.8039 N.ar    1  UNL1       -0.0923
     11 C         144.2876  143.4234  162.1754 C.ar    1  UNL1        0.3086
     12 O         143.5437  142.7099  161.0856 O.2     1  UNL1       -0.4048
     13 N         144.1123  144.8605  162.5678 N.pl3   1  UNL1       -0.2871
     14 H         144.5118  145.5731  162.0183 H       1  UNL1        0.1512
     15 C         143.3284  145.2119  163.7974 C.3     1  UNL1        0.0925
     16 C         141.8395  145.3759  163.7163 C.3     1  UNL1        0.0386
     17 C         140.9368  144.2981  164.2390 C.3     1  UNL1        0.0738
     18 N         140.7964  143.0075  163.4878 N.3     1  UNL1       -0.2726
     19 C         140.1267  142.9898  162.1457 C.3     1  UNL1        0.0721
     20 C         139.9863  141.6992  161.3944 C.3     1  UNL1        0.0174
     21 C         140.5157  140.4261  161.9851 C.3     1  UNL1        0.0029
     22 C         141.1855  140.4437  163.3272 C.3     1  UNL1        0.0174
     23 C         141.3258  141.7344  164.0785 C.3     1  UNL1        0.0721
     24 O         144.3681  137.2033  155.9501 O.2     1  UNL1       -0.2697
     25 C         143.0172  136.5800  156.1412 C.2     1  UNL1        0.2517
     26 N         142.1399  137.0239  157.2739 N.am    1  UNL1       -0.2803
     27 H         141.2532  136.6148  157.3993 H       1  UNL1        0.1552
     28 C         142.5437  135.5126  155.1995 C.ar    1  UNL1        0.0811
     29 C         142.2757  135.8459  153.7618 C.ar    1  UNL1        0.0068
     30 C         141.8022  134.7786  152.8202 C.ar    1  UNL1        0.0003
     31 C         141.5967  133.3781  153.3163 C.ar    1  UNL1        0.0023
     32 C         141.8647  133.0448  154.7540 C.ar    1  UNL1        0.0298
     33 C         142.3382  134.1121  155.6956 C.ar    1  UNL1        0.1445
     34 F         142.6063  133.7788  157.1334 F       1  UNL1       -0.2040
@<TRIPOS>BOND
     1    24    25    2
     2    25    26   am
     3    26     1    1
     4     1     2   ar
     5     2     3   ar
     6     3     4   ar
     7     4     8    1
     8     8     9   ar
     9     9    10   ar
    10    10    11   ar
    11    11    13    1
    12    13    15    1
    13    15    16    1
    14    16    17    1
    15    17    18    1
    16    18    19    1
    17    19    20    1
    18    20    21    1
    19    21    22    1
    20    22    23    1
    21    11    12   ar
    22     4     5   ar
    23     5     6    1
    24     5     7   ar
    25    25    28    1
    26    28    29   ar
    27    29    30   ar
    28    30    31   ar
    29    31    32   ar
    30    32    33   ar
    31    33    34    1
    32     7     1   ar
    33    33    28   ar
    34    12     8   ar
    35    23    18    1
    36    26    27    1
    37    13    14    1
@<TRIPOS>MOLECULE
*****
 34 37 0 0 0
SMALL
GASTEIGER

@<TRIPOS>ATOM
      1 C         140.3972  145.2527  157.6435 C.ar    1  UNL1        0.0514
      2 C         140.7128  144.0532  156.8001 C.ar    1  UNL1        0.0149
      3 C         140.7529  142.6888  157.4219 C.ar    1  UNL1        0.0068
      4 C         140.4775  142.5239  158.8871 C.ar    1  UNL1        0.0658
      5 C         140.1619  143.7235  159.7305 C.ar    1  UNL1        0.0634
      6 CL        139.8864  143.5586  161.1958 Cl      1  UNL1       -0.0820
      7 C         140.1217  145.0879  159.1087 C.ar    1  UNL1        0.0262
      8 C         140.5176  141.1594  159.5089 C.ar    1  UNL1        0.2520
      9 N         141.7424  140.3162  159.7065 N.ar    1  UNL1       -0.1058
     10 N         141.3218  139.0343  160.3620 N.ar    1  UNL1       -0.0923
     11 C         139.8370  139.0852  160.5695 C.ar    1  UNL1        0.3086
     12 O         139.3401  140.3986  160.0423 O.2     1  UNL1       -0.4048
     13 N         138.9968  138.0112  161.1946 N.pl3   1  UNL1       -0.2871
     14 H         138.7363  137.2211  160.6681 H       1  UNL1        0.1512
     15 C         138.5536  138.1410  162.6217 C.3     1  UNL1        0.0925
     16 C         139.1074  139.2376  163.4823 C.3     1  UNL1        0.0386
     17 C         138.1883  140.0510  164.3446 C.3     1  UNL1        0.0738
     18 N         138.4808  141.5009  164.5933 N.3     1  UNL1       -0.2726
     19 C         137.6105  142.5576  163.9801 C.3     1  UNL1        0.0721
     20 C         137.9031  144.0076  164.2288 C.3     1  UNL1        0.0174
     21 C         139.0659  144.4010  165.0908 C.3     1  UNL1        0.0029
     22 C         139.9362  143.3444  165.7040 C.3     1  UNL1        0.0174
     23 C         139.6437  141.8943  165.4553 C.3     1  UNL1        0.0721
     24 O         138.2683  145.9261  155.6399 O.2     1  UNL1       -0.2697
     25 C         139.2926  146.9539  156.0199 C.2     1  UNL1        0.2517
     26 N         140.3571  146.6172  157.0216 N.am    1  UNL1       -0.2803
     27 H         141.0294  147.2918  157.2710 H       1  UNL1        0.1552
     28 C         139.2525  148.3184  155.3981 C.ar    1  UNL1        0.0811
     29 C         139.8498  148.5418  154.0404 C.ar    1  UNL1        0.0068
     30 C         139.8097  149.9063  153.4187 C.ar    1  UNL1        0.0003
     31 C         139.1722  151.0473  154.1546 C.ar    1  UNL1        0.0023
     32 C         138.5748  150.8240  155.5122 C.ar    1  UNL1        0.0298
     33 C         138.6150  149.4595  156.1340 C.ar    1  UNL1        0.1445
     34 F         138.0176  149.2361  157.4917 F       1  UNL1       -0.2040
@<TRIPOS>BOND
     1    24    25    2
     2    25    26   am
     3    26     1    1
     4     1     2   ar
     5     2     3   ar
     6     3     4   ar
     7     4     8    1
     8     8     9   ar
     9     9    10   ar
    10    10    11   ar
    11    11    13    1
    12    13    15    1
    13    15    16    1
    14    16    17    1
    15    17    18    1
    16    18    19    1
    17    19    20    1
    18    20    21    1
    19    21    22    1
    20    22    23    1
    21    11    12   ar
    22     4     5   ar
    23     5     6    1
    24     5     7   ar
    25    25    28    1
    26    28    29   ar
    27    29    30   ar
    28    30    31   ar
    29    31    32   ar
    30    32    33   ar
    31    33    34    1
    32     7     1   ar
    33    33    28   ar
    34    12     8   ar
    35    23    18    1
    36    26    27    1
    37    13    14    1
@<TRIPOS>MOLECULE
*****
 34 37 0 0 0
SMALL
GASTEIGER

@<TRIPOS>ATOM
      1 C         141.6963  138.3500  162.6217 C.ar    1  UNL1        0.0514
      2 C         143.0865  137.9719  162.2044 C.ar    1  UNL1        0.0149
      3 C         143.4379  137.8962  160.7481 C.ar    1  UNL1        0.0068
      4 C         142.3990  138.1987  159.7092 C.ar    1  UNL1        0.0658
      5 C         141.0088  138.5768  160.1266 C.ar    1  UNL1        0.0634
      6 CL        139.9700  138.8793  159.0877 Cl      1  UNL1       -0.0820
      7 C         140.6574  138.6525  161.5828 C.ar    1  UNL1        0.0262
      8 C         142.7505  138.1230  158.2529 C.ar    1  UNL1        0.2520
      9 N         143.7352  138.9992  157.5369 N.ar    1  UNL1       -0.1058
     10 N         143.7723  138.5756  156.0984 N.ar    1  UNL1       -0.0923
     11 C         142.8104  137.4376  155.9254 C.ar    1  UNL1        0.3086
     12 O         142.1790  137.1579  157.2569 O.2     1  UNL1       -0.4048
     13 N         142.5294  136.7075  154.6455 N.pl3   1  UNL1       -0.2871
     14 H         143.0046  136.9591  153.8208 H       1  UNL1        0.1512
     15 C         141.5246  135.5941  154.6223 C.3     1  UNL1        0.0925
     16 C         141.9865  134.1671  154.6032 C.3     1  UNL1        0.0386
     17 C         141.6806  133.2642  155.7613 C.3     1  UNL1        0.0738
     18 N         142.7984  132.6095  156.5174 N.3     1  UNL1       -0.2726
     19 C         142.9149  131.1142  156.5383 C.3     1  UNL1        0.0721
     20 C         144.0327  130.4595  157.2945 C.3     1  UNL1        0.0174
     21 C         145.0340  131.3000  158.0299 C.3     1  UNL1        0.0029
     22 C         144.9175  132.7953  158.0090 C.3     1  UNL1        0.0174
     23 C         143.7997  133.4501  157.2528 C.3     1  UNL1        0.0721
     24 O         142.3398  140.8229  164.1937 O.2     1  UNL1       -0.2697
     25 C         141.6666  139.6621  164.8640 C.2     1  UNL1        0.2517
     26 N         141.3448  138.4257  164.0781 N.am    1  UNL1       -0.2803
     27 H         140.9029  137.6638  164.5180 H       1  UNL1        0.1552
     28 C         141.3151  139.7378  166.3203 C.ar    1  UNL1        0.0811
     29 C         142.3999  139.7121  167.3560 C.ar    1  UNL1        0.0068
     30 C         142.0484  139.7878  168.8122 C.ar    1  UNL1        0.0003
     31 C         140.6122  139.8891  169.2328 C.ar    1  UNL1        0.0023
     32 C         139.5274  139.9148  168.1972 C.ar    1  UNL1        0.0298
     33 C         139.8789  139.8391  166.7409 C.ar    1  UNL1        0.1445
     34 F         138.7941  139.8648  165.7052 F       1  UNL1       -0.2040
@<TRIPOS>BOND
     1    24    25    2
     2    25    26   am
     3    26     1    1
     4     1     2   ar
     5     2     3   ar
     6     3     4   ar
     7     4     8    1
     8     8     9   ar
     9     9    10   ar
    10    10    11   ar
    11    11    13    1
    12    13    15    1
    13    15    16    1
    14    16    17    1
    15    17    18    1
    16    18    19    1
    17    19    20    1
    18    20    21    1
    19    21    22    1
    20    22    23    1
    21    11    12   ar
    22     4     5   ar
    23     5     6    1
    24     5     7   ar
    25    25    28    1
    26    28    29   ar
    27    29    30   ar
    28    30    31   ar
    29    31    32   ar
    30    32    33   ar
    31    33    34    1
    32     7     1   ar
    33    33    28   ar
    34    12     8   ar
    35    23    18    1
    36    26    27    1
    37    13    14    1
