@<TRIPOS>MOLECULE
*****
 41 44 0 0 0
SMALL
GASTEIGER

@<TRIPOS>ATOM
      1 C         142.1428  140.9770  163.1004 C.3     1  UNL1        0.0799
      2 C         142.3988  141.3345  164.5345 C.ar    1  UNL1        0.0374
      3 C         141.5845  140.6996  165.6226 C.ar    1  UNL1        0.0023
      4 C         141.8405  141.0570  167.0567 C.ar    1  UNL1        0.0181
      5 C         141.0262  140.4221  168.1447 C.ar    1  UNL1        0.0082
      6 C         141.2822  140.7797  169.5789 C.ar    1  UNL1        0.0347
      7 BR        140.4679  140.1447  170.6669 Br      1  UNL1       -0.0490
      8 C         142.3524  141.7720  169.9249 C.ar    1  UNL1        0.0082
      9 C         143.1666  142.4070  168.8369 C.ar    1  UNL1        0.0197
     10 C         142.9107  142.0495  167.4028 C.ar    1  UNL1        0.0844
     11 N         143.7250  142.6844  166.3147 N.ar    1  UNL1       -0.2119
     12 C         143.4690  142.3269  164.8806 C.ar    1  UNL1        0.2211
     13 O         144.2832  142.9618  163.7925 O.3     1  UNL1       -0.4563
     14 C         144.0278  144.3865  163.3988 C.3     1  UNL1        0.2542
     15 C         141.4271  141.9425  162.2030 C.ar    1  UNL1        0.0148
     16 C         142.1184  142.4940  160.9915 C.ar    1  UNL1       -0.0014
     17 C         141.4027  143.4596  160.0940 C.ar    1  UNL1        0.0029
     18 C         139.9956  143.8736  160.4081 C.ar    1  UNL1        0.0392
     19 C         139.3042  143.3221  161.6196 C.ar    1  UNL1        0.1657
     20 C         140.0200  142.3565  162.5170 C.ar    1  UNL1        0.1702
     21 F         139.3286  141.8050  163.7285 F       1  UNL1       -0.2013
     22 O         137.8971  143.7361  161.9337 O.3     1  UNL1       -0.4692
     23 C         137.5813  144.3808  163.2508 C.3     1  UNL1        0.2526
     24 C         142.6026  139.6539  162.5637 C.3     1  UNL1        0.1162
     25 O         144.0231  140.1345  162.5958 O.3     1  UNL1       -0.3820
     26 H         144.6097  139.4314  162.2755 H       1  UNL1        0.2107
     27 C         138.9553  138.8186  161.2409 C.ar    1  UNL1        0.2272
     28 C         140.3759  139.2993  161.2730 C.ar    1  UNL1        0.0559
     29 C         141.1821  139.1732  162.5316 C.ar    1  UNL1        0.0117
     30 C         140.5677  138.5665  163.7581 C.ar    1  UNL1        0.0559
     31 C         139.1471  138.0859  163.7260 C.ar    1  UNL1        0.2272
     32 N         138.3410  138.2119  162.4674 N.ar    1  UNL1       -0.1767
     33 C         138.0340  140.2732  159.2952 C.3     1  UNL1        0.2542
     34 O         138.1492  138.9447  159.9822 O.3     1  UNL1       -0.4561
     35 O         138.5327  137.4791  164.9526 O.3     1  UNL1       -0.4561
     36 C         138.2412  138.3370  166.1481 C.3     1  UNL1        0.2542
     37 C         143.0624  138.3308  162.0270 C.3     1  UNL1        0.0491
     38 C         143.9926  138.2806  160.8514 C.3     1  UNL1        0.0750
     39 N         143.5242  138.7443  159.5040 N.3     1  UNL1       -0.2702
     40 C         143.9006  140.1089  159.0078 C.3     1  UNL1        0.0897
     41 C         142.6794  137.8434  158.6528 C.3     1  UNL1        0.0897
@<TRIPOS>BOND
     1    33    34    1
     2    34    27    1
     3    27    28   ar
     4    28    29   ar
     5    29    24    1
     6    24    25    1
     7    24    37    1
     8    37    38    1
     9    38    39    1
    10    39    40    1
    11    39    41    1
    12    24     1    1
    13     1     2    1
    14     2     3   ar
    15     3     4   ar
    16     4     5   ar
    17     5     6   ar
    18     6     7    1
    19     6     8   ar
    20     8     9   ar
    21     9    10   ar
    22    10    11   ar
    23    11    12   ar
    24    12    13    1
    25    13    14    1
    26     1    15    1
    27    15    16   ar
    28    16    17   ar
    29    17    18   ar
    30    18    19   ar
    31    19    22    1
    32    22    23    1
    33    19    20   ar
    34    20    21    1
    35    29    30   ar
    36    30    31   ar
    37    31    35    1
    38    35    36    1
    39    31    32   ar
    40    32    27   ar
    41    12     2   ar
    42    20    15   ar
    43    10     4   ar
    44    25    26    1
@<TRIPOS>MOLECULE
*****
 41 44 0 0 0
SMALL
GASTEIGER

@<TRIPOS>ATOM
      1 C         142.2549  140.9902  163.2292 C.3     1  UNL1        0.0799
      2 C         142.4942  141.3695  164.6606 C.ar    1  UNL1        0.0374
      3 C         141.6742  140.7434  165.7495 C.ar    1  UNL1        0.0023
      4 C         141.9135  141.1227  167.1809 C.ar    1  UNL1        0.0181
      5 C         141.0935  140.4966  168.2698 C.ar    1  UNL1        0.0082
      6 C         141.3328  140.8759  169.7012 C.ar    1  UNL1        0.0347
      7 BR        140.5129  140.2498  170.7901 Br      1  UNL1       -0.0490
      8 C         142.3921  141.8812  170.0437 C.ar    1  UNL1        0.0082
      9 C         143.2121  142.5072  168.9548 C.ar    1  UNL1        0.0197
     10 C         142.9728  142.1280  167.5234 C.ar    1  UNL1        0.0844
     11 N         143.7928  142.7541  166.4345 N.ar    1  UNL1       -0.2119
     12 C         143.5534  142.3748  165.0031 C.ar    1  UNL1        0.2211
     13 O         144.3734  143.0008  163.9142 O.3     1  UNL1       -0.4563
     14 C         144.0967  144.4108  163.4833 C.3     1  UNL1        0.2542
     15 C         141.5401  141.9375  162.3117 C.ar    1  UNL1        0.0148
     16 C         142.2472  142.4979  161.1134 C.ar    1  UNL1       -0.0014
     17 C         141.5324  143.4453  160.1959 C.ar    1  UNL1        0.0029
     18 C         140.1106  143.8321  160.4768 C.ar    1  UNL1        0.0392
     19 C         139.4036  143.2716  161.6751 C.ar    1  UNL1        0.1657
     20 C         140.1183  142.3243  162.5926 C.ar    1  UNL1        0.1702
     21 F         139.4113  141.7638  163.7908 F       1  UNL1       -0.2013
     22 O         137.9818  143.6584  161.9560 O.3     1  UNL1       -0.4692
     23 C         137.6378  144.3814  163.2245 C.3     1  UNL1        0.2526
     24 C         142.7304  139.6636  162.7152 C.3     1  UNL1        0.1162
     25 O         144.1427  140.1688  162.7179 O.3     1  UNL1       -0.3820
     26 H         144.7371  139.4690  162.4051 H       1  UNL1        0.2107
     27 C         139.3398  138.0019  163.9370 C.ar    1  UNL1        0.2272
     28 C         140.7522  138.5072  163.9396 C.ar    1  UNL1        0.0559
     29 C         141.3180  139.1584  162.7126 C.ar    1  UNL1        0.0117
     30 C         140.4715  139.3045  161.4830 C.ar    1  UNL1        0.0559
     31 C         139.0592  138.7993  161.4804 C.ar    1  UNL1        0.2272
     32 N         138.4933  138.1480  162.7074 N.ar    1  UNL1       -0.1767
     33 C         138.1085  138.1860  166.2174 C.3     1  UNL1        0.2542
     34 O         138.7740  137.3507  165.1641 O.3     1  UNL1       -0.4561
     35 O         138.2126  138.9453  160.2506 O.3     1  UNL1       -0.4561
     36 C         138.1267  140.2701  159.5523 C.3     1  UNL1        0.2542
     37 C         143.2059  138.3371  162.2013 C.3     1  UNL1        0.0491
     38 C         144.0779  138.2737  160.9825 C.3     1  UNL1        0.0750
     39 N         143.5556  138.7538  159.6609 N.3     1  UNL1       -0.2702
     40 C         143.9256  140.1180  159.1590 C.3     1  UNL1        0.0897
     41 C         142.6634  137.8696  158.8411 C.3     1  UNL1        0.0897
@<TRIPOS>BOND
     1    33    34    1
     2    34    27    1
     3    27    28   ar
     4    28    29   ar
     5    29    24    1
     6    24    25    1
     7    24    37    1
     8    37    38    1
     9    38    39    1
    10    39    40    1
    11    39    41    1
    12    24     1    1
    13     1     2    1
    14     2     3   ar
    15     3     4   ar
    16     4     5   ar
    17     5     6   ar
    18     6     7    1
    19     6     8   ar
    20     8     9   ar
    21     9    10   ar
    22    10    11   ar
    23    11    12   ar
    24    12    13    1
    25    13    14    1
    26     1    15    1
    27    15    16   ar
    28    16    17   ar
    29    17    18   ar
    30    18    19   ar
    31    19    22    1
    32    22    23    1
    33    19    20   ar
    34    20    21    1
    35    29    30   ar
    36    30    31   ar
    37    31    35    1
    38    35    36    1
    39    31    32   ar
    40    32    27   ar
    41    12     2   ar
    42    20    15   ar
    43    10     4   ar
    44    25    26    1
@<TRIPOS>MOLECULE
*****
 41 44 0 0 0
SMALL
GASTEIGER

@<TRIPOS>ATOM
      1 C         139.3791  140.7034  164.5711 C.3     1  UNL1        0.0799
      2 C         139.6202  140.6595  166.0510 C.ar    1  UNL1        0.0374
      3 C         140.6363  141.5712  166.6727 C.ar    1  UNL1        0.0023
      4 C         140.8774  141.5273  168.1525 C.ar    1  UNL1        0.0181
      5 C         141.8935  142.4390  168.7742 C.ar    1  UNL1        0.0082
      6 C         142.1346  142.3951  170.2541 C.ar    1  UNL1        0.0347
      7 BR        143.1506  143.3068  170.8757 Br      1  UNL1       -0.0490
      8 C         141.3597  141.4395  171.1122 C.ar    1  UNL1        0.0082
      9 C         140.3437  140.5278  170.4905 C.ar    1  UNL1        0.0197
     10 C         140.1025  140.5717  169.0107 C.ar    1  UNL1        0.0844
     11 N         139.0865  139.6600  168.3890 N.ar    1  UNL1       -0.2119
     12 C         138.8453  139.7039  166.9091 C.ar    1  UNL1        0.2211
     13 O         137.8293  138.7922  166.2875 O.3     1  UNL1       -0.4563
     14 C         137.3387  137.5914  167.0407 C.3     1  UNL1        0.2542
     15 C         139.2428  142.0236  163.8723 C.ar    1  UNL1        0.0148
     16 C         137.8857  142.5281  163.4804 C.ar    1  UNL1       -0.0014
     17 C         137.7493  143.8484  162.7815 C.ar    1  UNL1        0.0029
     18 C         138.9702  144.6641  162.4746 C.ar    1  UNL1        0.0392
     19 C         140.3273  144.1595  162.8665 C.ar    1  UNL1        0.1657
     20 C         140.4636  142.8393  163.5653 C.ar    1  UNL1        0.1702
     21 F         141.8207  142.3347  163.9572 F       1  UNL1       -0.2013
     22 O         141.5482  144.9752  162.5595 O.3     1  UNL1       -0.4692
     23 C         142.5304  145.2937  163.6476 C.3     1  UNL1        0.2526
     24 C         139.2742  139.4270  163.7901 C.3     1  UNL1        0.1162
     25 O         137.7820  139.5743  163.7497 O.3     1  UNL1       -0.3820
     26 H         137.3965  138.8279  163.2649 H       1  UNL1        0.2107
     27 C         142.9316  138.6567  165.1242 C.ar    1  UNL1        0.2272
     28 C         141.4394  138.8040  165.0838 C.ar    1  UNL1        0.0559
     29 C         140.7664  139.2797  163.8306 C.ar    1  UNL1        0.0117
     30 C         141.5856  139.6082  162.6177 C.ar    1  UNL1        0.0559
     31 C         143.0778  139.4609  162.6582 C.ar    1  UNL1        0.2272
     32 N         143.7508  138.9851  163.9114 N.ar    1  UNL1       -0.1767
     33 C         143.1617  138.7043  167.7117 C.3     1  UNL1        0.2542
     34 O         143.6047  138.1809  166.3776 O.3     1  UNL1       -0.4561
     35 O         143.8970  139.7893  161.4452 O.3     1  UNL1       -0.4561
     36 C         143.4893  139.2649  160.1003 C.3     1  UNL1        0.2542
     37 C         139.1694  138.1507  163.0092 C.3     1  UNL1        0.0491
     38 C         138.2860  138.0824  161.7988 C.3     1  UNL1        0.0750
     39 N         138.5549  138.9739  160.6228 N.3     1  UNL1       -0.2702
     40 C         137.7595  140.2321  160.4382 C.3     1  UNL1        0.0897
     41 C         139.6191  138.6071  159.6315 C.3     1  UNL1        0.0897
@<TRIPOS>BOND
     1    33    34    1
     2    34    27    1
     3    27    28   ar
     4    28    29   ar
     5    29    24    1
     6    24    25    1
     7    24    37    1
     8    37    38    1
     9    38    39    1
    10    39    40    1
    11    39    41    1
    12    24     1    1
    13     1     2    1
    14     2     3   ar
    15     3     4   ar
    16     4     5   ar
    17     5     6   ar
    18     6     7    1
    19     6     8   ar
    20     8     9   ar
    21     9    10   ar
    22    10    11   ar
    23    11    12   ar
    24    12    13    1
    25    13    14    1
    26     1    15    1
    27    15    16   ar
    28    16    17   ar
    29    17    18   ar
    30    18    19   ar
    31    19    22    1
    32    22    23    1
    33    19    20   ar
    34    20    21    1
    35    29    30   ar
    36    30    31   ar
    37    31    35    1
    38    35    36    1
    39    31    32   ar
    40    32    27   ar
    41    12     2   ar
    42    20    15   ar
    43    10     4   ar
    44    25    26    1
@<TRIPOS>MOLECULE
*****
 41 44 0 0 0
SMALL
GASTEIGER

@<TRIPOS>ATOM
      1 C         139.4044  140.7056  164.5881 C.3     1  UNL1        0.0799
      2 C         139.6409  140.6612  166.0687 C.ar    1  UNL1        0.0374
      3 C         140.6561  141.5716  166.6937 C.ar    1  UNL1        0.0023
      4 C         140.8927  141.5272  168.1742 C.ar    1  UNL1        0.0181
      5 C         141.9079  142.4376  168.7992 C.ar    1  UNL1        0.0082
      6 C         142.1444  142.3932  170.2798 C.ar    1  UNL1        0.0347
      7 BR        143.1596  143.3035  170.9048 Br      1  UNL1       -0.0490
      8 C         141.3657  141.4384  171.1354 C.ar    1  UNL1        0.0082
      9 C         140.3505  140.5280  170.5104 C.ar    1  UNL1        0.0197
     10 C         140.1140  140.5724  169.0299 C.ar    1  UNL1        0.0844
     11 N         139.0988  139.6620  168.4049 N.ar    1  UNL1       -0.2119
     12 C         138.8622  139.7064  166.9243 C.ar    1  UNL1        0.2211
     13 O         137.8470  138.7961  166.2994 O.3     1  UNL1       -0.4563
     14 C         137.3540  137.5947  167.0502 C.3     1  UNL1        0.2542
     15 C         139.2670  142.0260  163.8898 C.ar    1  UNL1        0.0148
     16 C         137.9099  142.5268  163.4930 C.ar    1  UNL1       -0.0014
     17 C         137.7724  143.8472  162.7946 C.ar    1  UNL1        0.0029
     18 C         138.9920  144.6668  162.4933 C.ar    1  UNL1        0.0392
     19 C         140.3491  144.1660  162.8902 C.ar    1  UNL1        0.1657
     20 C         140.4866  142.8456  163.5884 C.ar    1  UNL1        0.1702
     21 F         141.8436  142.3448  163.9853 F       1  UNL1       -0.2013
     22 O         141.5687  144.9856  162.5888 O.3     1  UNL1       -0.4692
     23 C         142.5101  145.3637  163.6938 C.3     1  UNL1        0.2526
     24 C         139.3054  139.4296  163.8058 C.3     1  UNL1        0.1162
     25 O         137.8155  139.5885  163.7353 O.3     1  UNL1       -0.3820
     26 H         137.4339  138.8448  163.2431 H       1  UNL1        0.2107
     27 C         143.1320  139.4423  162.7538 C.ar    1  UNL1        0.2272
     28 C         141.6421  139.6012  162.6833 C.ar    1  UNL1        0.0559
     29 C         140.7953  139.2707  163.8764 C.ar    1  UNL1        0.0117
     30 C         141.4383  138.7813  165.1400 C.ar    1  UNL1        0.0559
     31 C         142.9282  138.6224  165.2106 C.ar    1  UNL1        0.2272
     32 N         143.7750  138.9529  164.0175 N.ar    1  UNL1       -0.1767
     33 C         143.5558  139.3241  160.1932 C.3     1  UNL1        0.2542
     34 O         143.9788  139.7729  161.5606 O.3     1  UNL1       -0.4561
     35 O         143.5713  138.1329  166.4744 O.3     1  UNL1       -0.4561
     36 C         143.1267  138.6747  167.8006 C.3     1  UNL1        0.2542
     37 C         139.2063  138.1536  163.0236 C.3     1  UNL1        0.0491
     38 C         138.2775  138.0640  161.8492 C.3     1  UNL1        0.0750
     39 N         138.5283  138.8997  160.6291 N.3     1  UNL1       -0.2702
     40 C         137.6193  140.0486  160.3071 C.3     1  UNL1        0.0897
     41 C         139.6882  138.5865  159.7310 C.3     1  UNL1        0.0897
@<TRIPOS>BOND
     1    33    34    1
     2    34    27    1
     3    27    28   ar
     4    28    29   ar
     5    29    24    1
     6    24    25    1
     7    24    37    1
     8    37    38    1
     9    38    39    1
    10    39    40    1
    11    39    41    1
    12    24     1    1
    13     1     2    1
    14     2     3   ar
    15     3     4   ar
    16     4     5   ar
    17     5     6   ar
    18     6     7    1
    19     6     8   ar
    20     8     9   ar
    21     9    10   ar
    22    10    11   ar
    23    11    12   ar
    24    12    13    1
    25    13    14    1
    26     1    15    1
    27    15    16   ar
    28    16    17   ar
    29    17    18   ar
    30    18    19   ar
    31    19    22    1
    32    22    23    1
    33    19    20   ar
    34    20    21    1
    35    29    30   ar
    36    30    31   ar
    37    31    35    1
    38    35    36    1
    39    31    32   ar
    40    32    27   ar
    41    12     2   ar
    42    20    15   ar
    43    10     4   ar
    44    25    26    1
@<TRIPOS>MOLECULE
*****
 41 44 0 0 0
SMALL
GASTEIGER

@<TRIPOS>ATOM
      1 C         141.4848  141.7502  164.5531 C.3     1  UNL1        0.0799
      2 C         142.2901  141.9741  163.3075 C.ar    1  UNL1        0.0374
      3 C         142.0542  141.1188  162.0981 C.ar    1  UNL1        0.0023
      4 C         142.8594  141.3426  160.8525 C.ar    1  UNL1        0.0181
      5 C         142.6235  140.4873  159.6431 C.ar    1  UNL1        0.0082
      6 C         143.4288  140.7112  158.3974 C.ar    1  UNL1        0.0347
      7 BR        143.1929  139.8559  157.1880 Br      1  UNL1       -0.0490
      8 C         144.4699  141.7904  158.3613 C.ar    1  UNL1        0.0082
      9 C         144.7058  142.6457  159.5708 C.ar    1  UNL1        0.0197
     10 C         143.9006  142.4219  160.8163 C.ar    1  UNL1        0.0844
     11 N         144.1365  143.2772  162.0258 N.ar    1  UNL1       -0.2119
     12 C         143.3313  143.0533  163.2714 C.ar    1  UNL1        0.2211
     13 O         143.5672  143.9087  164.4808 O.3     1  UNL1       -0.4563
     14 C         144.6715  143.5674  165.4369 C.3     1  UNL1        0.2542
     15 C         142.0233  140.8771  165.6475 C.ar    1  UNL1        0.0148
     16 C         142.4549  139.4732  165.3430 C.ar    1  UNL1       -0.0014
     17 C         142.9934  138.6001  166.4374 C.ar    1  UNL1        0.0029
     18 C         143.1003  139.1308  167.8362 C.ar    1  UNL1        0.0392
     19 C         142.6686  140.5348  168.1407 C.ar    1  UNL1        0.1657
     20 C         142.1302  141.4079  167.0463 C.ar    1  UNL1        0.1702
     21 F         141.6986  142.8118  167.3508 F       1  UNL1       -0.2013
     22 O         142.7755  141.0656  169.5396 O.3     1  UNL1       -0.4692
     23 C         143.7141  142.1956  169.8433 C.3     1  UNL1        0.2526
     24 C         140.1411  142.3995  164.7042 C.3     1  UNL1        0.1162
     25 O         140.7833  143.7515  164.6061 O.3     1  UNL1       -0.3820
     26 H         140.1025  144.4388  164.6771 H       1  UNL1        0.2107
     27 C         138.6943  138.8513  163.6713 C.ar    1  UNL1        0.2272
     28 C         139.3365  140.2034  163.5731 C.ar    1  UNL1        0.0559
     29 C         139.4989  141.0475  164.8024 C.ar    1  UNL1        0.0117
     30 C         139.0191  140.5396  166.1297 C.ar    1  UNL1        0.0559
     31 C         138.3769  139.1876  166.2278 C.ar    1  UNL1        0.2272
     32 N         138.2145  138.3435  164.9986 N.ar    1  UNL1       -0.1767
     33 C         139.5366  138.0977  161.3319 C.3     1  UNL1        0.2542
     34 O         138.5319  138.0072  162.4420 O.3     1  UNL1       -0.4561
     35 O         137.8971  138.6798  167.5552 O.3     1  UNL1       -0.4561
     36 C         136.8971  137.5632  167.6141 C.3     1  UNL1        0.2542
     37 C         138.7974  143.0488  164.8554 C.3     1  UNL1        0.0491
     38 C         138.4866  144.3120  164.1088 C.3     1  UNL1        0.0750
     39 N         138.7386  144.3919  162.6323 N.3     1  UNL1       -0.2702
     40 C         139.4208  145.5952  162.0519 C.3     1  UNL1        0.0897
     41 C         138.3085  143.2687  161.7361 C.3     1  UNL1        0.0897
@<TRIPOS>BOND
     1    33    34    1
     2    34    27    1
     3    27    28   ar
     4    28    29   ar
     5    29    24    1
     6    24    25    1
     7    24    37    1
     8    37    38    1
     9    38    39    1
    10    39    40    1
    11    39    41    1
    12    24     1    1
    13     1     2    1
    14     2     3   ar
    15     3     4   ar
    16     4     5   ar
    17     5     6   ar
    18     6     7    1
    19     6     8   ar
    20     8     9   ar
    21     9    10   ar
    22    10    11   ar
    23    11    12   ar
    24    12    13    1
    25    13    14    1
    26     1    15    1
    27    15    16   ar
    28    16    17   ar
    29    17    18   ar
    30    18    19   ar
    31    19    22    1
    32    22    23    1
    33    19    20   ar
    34    20    21    1
    35    29    30   ar
    36    30    31   ar
    37    31    35    1
    38    35    36    1
    39    31    32   ar
    40    32    27   ar
    41    12     2   ar
    42    20    15   ar
    43    10     4   ar
    44    25    26    1
@<TRIPOS>MOLECULE
*****
 41 44 0 0 0
SMALL
GASTEIGER

@<TRIPOS>ATOM
      1 C         140.7504  140.6169  163.1293 C.3     1  UNL1        0.0799
      2 C         140.4362  140.5350  164.5938 C.ar    1  UNL1        0.0374
      3 C         140.6605  141.7266  165.4767 C.ar    1  UNL1        0.0023
      4 C         140.3464  141.6448  166.9411 C.ar    1  UNL1        0.0181
      5 C         140.5706  142.8365  167.8241 C.ar    1  UNL1        0.0082
      6 C         140.2565  142.7546  169.2886 C.ar    1  UNL1        0.0347
      7 BR        140.4807  143.9463  170.1715 Br      1  UNL1       -0.0490
      8 C         139.7181  141.4810  169.8701 C.ar    1  UNL1        0.0082
      9 C         139.4938  140.2894  168.9871 C.ar    1  UNL1        0.0197
     10 C         139.8079  140.3712  167.5227 C.ar    1  UNL1        0.0844
     11 N         139.5837  139.1795  166.6398 N.ar    1  UNL1       -0.2119
     12 C         139.8978  139.2614  165.1753 C.ar    1  UNL1        0.2211
     13 O         139.6735  138.0697  164.2923 O.3     1  UNL1       -0.4563
     14 C         140.6810  136.9588  164.2617 C.3     1  UNL1        0.2542
     15 C         141.8778  139.8092  162.5578 C.ar    1  UNL1        0.0148
     16 C         143.2028  139.7694  163.2596 C.ar    1  UNL1       -0.0014
     17 C         144.3303  138.9617  162.6881 C.ar    1  UNL1        0.0029
     18 C         144.1327  138.1940  161.4147 C.ar    1  UNL1        0.0392
     19 C         142.8075  138.2339  160.7129 C.ar    1  UNL1        0.1657
     20 C         141.6801  139.0415  161.2844 C.ar    1  UNL1        0.1702
     21 F         140.3551  139.0813  160.5825 F       1  UNL1       -0.2013
     22 O         142.6099  137.4661  159.4395 O.3     1  UNL1       -0.4692
     23 C         142.6382  138.1806  158.1208 C.3     1  UNL1        0.2526
     24 C         139.9371  141.5064  162.2364 C.3     1  UNL1        0.1162
     25 O         138.7276  140.6566  162.4914 O.3     1  UNL1       -0.3820
     26 H         137.9711  141.0157  162.0020 H       1  UNL1        0.2107
     27 C         143.0634  143.8669  162.8721 C.ar    1  UNL1        0.2272
     28 C         141.8539  143.0171  163.1271 C.ar    1  UNL1        0.0559
     29 C         141.1465  142.3562  161.9814 C.ar    1  UNL1        0.0117
     30 C         141.6486  142.5452  160.5806 C.ar    1  UNL1        0.0559
     31 C         142.8581  143.3950  160.3256 C.ar    1  UNL1        0.2272
     32 N         143.5655  144.0559  161.4714 N.ar    1  UNL1       -0.1767
     33 C         144.3034  143.6990  165.1490 C.3     1  UNL1        0.2542
     34 O         143.7707  144.5278  164.0180 O.3     1  UNL1       -0.4561
     35 O         143.3602  143.5839  158.9248 O.3     1  UNL1       -0.4561
     36 C         142.4256  144.0552  157.8503 C.3     1  UNL1        0.2542
     37 C         139.1238  142.3959  161.3435 C.3     1  UNL1        0.0491
     38 C         138.0330  143.2462  161.9241 C.3     1  UNL1        0.0750
     39 N         138.3591  144.2787  162.9623 N.3     1  UNL1       -0.2702
     40 C         139.1707  145.4845  162.5918 C.3     1  UNL1        0.0897
     41 C         137.8736  144.1053  164.3709 C.3     1  UNL1        0.0897
@<TRIPOS>BOND
     1    33    34    1
     2    34    27    1
     3    27    28   ar
     4    28    29   ar
     5    29    24    1
     6    24    25    1
     7    24    37    1
     8    37    38    1
     9    38    39    1
    10    39    40    1
    11    39    41    1
    12    24     1    1
    13     1     2    1
    14     2     3   ar
    15     3     4   ar
    16     4     5   ar
    17     5     6   ar
    18     6     7    1
    19     6     8   ar
    20     8     9   ar
    21     9    10   ar
    22    10    11   ar
    23    11    12   ar
    24    12    13    1
    25    13    14    1
    26     1    15    1
    27    15    16   ar
    28    16    17   ar
    29    17    18   ar
    30    18    19   ar
    31    19    22    1
    32    22    23    1
    33    19    20   ar
    34    20    21    1
    35    29    30   ar
    36    30    31   ar
    37    31    35    1
    38    35    36    1
    39    31    32   ar
    40    32    27   ar
    41    12     2   ar
    42    20    15   ar
    43    10     4   ar
    44    25    26    1
@<TRIPOS>MOLECULE
*****
 41 44 0 0 0
SMALL
GASTEIGER

@<TRIPOS>ATOM
      1 C         140.7894  140.5155  163.0310 C.3     1  UNL1        0.0799
      2 C         140.4793  140.4490  164.4971 C.ar    1  UNL1        0.0374
      3 C         140.6892  141.6553  165.3636 C.ar    1  UNL1        0.0023
      4 C         140.3791  141.5888  166.8297 C.ar    1  UNL1        0.0181
      5 C         140.5891  142.7951  167.6961 C.ar    1  UNL1        0.0082
      6 C         140.2790  142.7285  169.1623 C.ar    1  UNL1        0.0347
      7 BR        140.4889  143.9348  170.0287 Br      1  UNL1       -0.0490
      8 C         139.7590  141.4557  169.7619 C.ar    1  UNL1        0.0082
      9 C         139.5490  140.2494  168.8954 C.ar    1  UNL1        0.0197
     10 C         139.8591  140.3159  167.4293 C.ar    1  UNL1        0.0844
     11 N         139.6492  139.1096  166.5629 N.ar    1  UNL1       -0.2119
     12 C         139.9593  139.1762  165.0967 C.ar    1  UNL1        0.2211
     13 O         139.7493  137.9699  164.2302 O.3     1  UNL1       -0.4563
     14 C         140.7767  136.8772  164.2042 C.3     1  UNL1        0.2542
     15 C         141.9312  139.7215  162.4691 C.ar    1  UNL1        0.0148
     16 C         143.2702  139.7526  163.1442 C.ar    1  UNL1       -0.0014
     17 C         144.4121  138.9585  162.5824 C.ar    1  UNL1        0.0029
     18 C         144.2149  138.1333  161.3454 C.ar    1  UNL1        0.0392
     19 C         142.8757  138.1023  160.6702 C.ar    1  UNL1        0.1657
     20 C         141.7339  138.8963  161.2321 C.ar    1  UNL1        0.1702
     21 F         140.3948  138.8652  160.5570 F       1  UNL1       -0.2013
     22 O         142.6784  137.2771  159.4332 O.3     1  UNL1       -0.4692
     23 C         142.6369  137.9400  158.0882 C.3     1  UNL1        0.2526
     24 C         139.9576  141.3761  162.1268 C.3     1  UNL1        0.1162
     25 O         138.7328  140.6041  162.5187 O.3     1  UNL1       -0.3820
     26 H         137.9616  140.9623  162.0519 H       1  UNL1        0.2107
     27 C         142.8649  142.9265  159.9145 C.ar    1  UNL1        0.2272
     28 C         141.6400  142.1545  160.3064 C.ar    1  UNL1        0.0559
     29 C         141.1825  142.1482  161.7349 C.ar    1  UNL1        0.0117
     30 C         141.9500  142.9139  162.7715 C.ar    1  UNL1        0.0559
     31 C         143.1748  143.6860  162.3796 C.ar    1  UNL1        0.2272
     32 N         143.6323  143.6923  160.9511 N.ar    1  UNL1       -0.1767
     33 C         144.7406  142.5774  158.1510 C.3     1  UNL1        0.2542
     34 O         143.3223  142.9328  158.4859 O.3     1  UNL1       -0.4561
     35 O         143.9423  144.4518  163.4163 O.3     1  UNL1       -0.4561
     36 C         144.0812  143.9019  164.8049 C.3     1  UNL1        0.2542
     37 C         139.1259  142.2367  161.2226 C.3     1  UNL1        0.0491
     38 C         138.0084  143.0606  161.7905 C.3     1  UNL1        0.0750
     39 N         138.2108  143.8200  163.0681 N.3     1  UNL1       -0.2702
     40 C         137.6084  143.3136  164.3450 C.3     1  UNL1        0.0897
     41 C         139.0156  145.0858  163.0688 C.3     1  UNL1        0.0897
@<TRIPOS>BOND
     1    33    34    1
     2    34    27    1
     3    27    28   ar
     4    28    29   ar
     5    29    24    1
     6    24    25    1
     7    24    37    1
     8    37    38    1
     9    38    39    1
    10    39    40    1
    11    39    41    1
    12    24     1    1
    13     1     2    1
    14     2     3   ar
    15     3     4   ar
    16     4     5   ar
    17     5     6   ar
    18     6     7    1
    19     6     8   ar
    20     8     9   ar
    21     9    10   ar
    22    10    11   ar
    23    11    12   ar
    24    12    13    1
    25    13    14    1
    26     1    15    1
    27    15    16   ar
    28    16    17   ar
    29    17    18   ar
    30    18    19   ar
    31    19    22    1
    32    22    23    1
    33    19    20   ar
    34    20    21    1
    35    29    30   ar
    36    30    31   ar
    37    31    35    1
    38    35    36    1
    39    31    32   ar
    40    32    27   ar
    41    12     2   ar
    42    20    15   ar
    43    10     4   ar
    44    25    26    1
@<TRIPOS>MOLECULE
*****
 41 44 0 0 0
SMALL
GASTEIGER

@<TRIPOS>ATOM
      1 C         141.4058  141.7031  164.3547 C.3     1  UNL1        0.0799
      2 C         142.2394  141.8989  163.1230 C.ar    1  UNL1        0.0374
      3 C         141.9486  141.1018  161.8861 C.ar    1  UNL1        0.0023
      4 C         142.7821  141.2976  160.6545 C.ar    1  UNL1        0.0181
      5 C         142.4912  140.5006  159.4175 C.ar    1  UNL1        0.0082
      6 C         143.3248  140.6964  158.1858 C.ar    1  UNL1        0.0347
      7 BR        143.0340  139.8993  156.9489 Br      1  UNL1       -0.0490
      8 C         144.4491  141.6893  158.1912 C.ar    1  UNL1        0.0082
      9 C         144.7399  142.4864  159.4282 C.ar    1  UNL1        0.0197
     10 C         143.9064  142.2906  160.6598 C.ar    1  UNL1        0.0844
     11 N         144.1972  143.0877  161.8967 N.ar    1  UNL1       -0.2119
     12 C         143.3637  142.8918  163.1284 C.ar    1  UNL1        0.2211
     13 O         143.6545  143.6889  164.3654 O.3     1  UNL1       -0.4563
     14 C         143.7962  145.1799  164.2808 C.3     1  UNL1        0.2542
     15 C         141.9523  140.9239  165.5141 C.ar    1  UNL1        0.0148
     16 C         142.4634  139.5291  165.3060 C.ar    1  UNL1       -0.0014
     17 C         143.0100  138.7499  166.4654 C.ar    1  UNL1        0.0029
     18 C         143.0453  139.3654  167.8328 C.ar    1  UNL1        0.0392
     19 C         142.5341  140.7603  168.0409 C.ar    1  UNL1        0.1657
     20 C         141.9876  141.5395  166.8815 C.ar    1  UNL1        0.1702
     21 F         141.4765  142.9342  167.0895 F       1  UNL1       -0.2013
     22 O         142.5695  141.3758  169.4083 O.3     1  UNL1       -0.4692
     23 C         142.3994  140.5133  170.6237 C.3     1  UNL1        0.2526
     24 C         140.0258  142.2864  164.4269 C.3     1  UNL1        0.1162
     25 O         140.5971  143.6609  164.2408 O.3     1  UNL1       -0.3820
     26 H         139.8788  144.3128  164.2447 H       1  UNL1        0.2107
     27 C         138.3720  139.1137  166.1440 C.ar    1  UNL1        0.2272
     28 C         138.9432  140.4881  165.9579 C.ar    1  UNL1        0.0559
     29 C         139.4545  140.9120  164.6130 C.ar    1  UNL1        0.0117
     30 C         139.3946  139.9615  163.4542 C.ar    1  UNL1        0.0559
     31 C         138.8233  138.5871  163.6403 C.ar    1  UNL1        0.2272
     32 N         138.3120  138.1632  164.9852 N.ar    1  UNL1       -0.1767
     33 C         136.8727  137.5661  167.5957 C.3     1  UNL1        0.2542
     34 O         137.8606  138.6898  167.4890 O.3     1  UNL1       -0.4561
     35 O         138.7634  137.6366  162.4814 O.3     1  UNL1       -0.4561
     36 C         139.1154  138.1116  161.1028 C.3     1  UNL1        0.2542
     37 C         138.6458  142.8698  164.4991 C.3     1  UNL1        0.0491
     38 C         138.1865  143.8414  163.4527 C.3     1  UNL1        0.0750
     39 N         138.6226  143.6706  162.0277 N.3     1  UNL1       -0.2702
     40 C         139.5660  144.6587  161.4084 C.3     1  UNL1        0.0897
     41 C         138.1152  142.5117  161.2219 C.3     1  UNL1        0.0897
@<TRIPOS>BOND
     1    33    34    1
     2    34    27    1
     3    27    28   ar
     4    28    29   ar
     5    29    24    1
     6    24    25    1
     7    24    37    1
     8    37    38    1
     9    38    39    1
    10    39    40    1
    11    39    41    1
    12    24     1    1
    13     1     2    1
    14     2     3   ar
    15     3     4   ar
    16     4     5   ar
    17     5     6   ar
    18     6     7    1
    19     6     8   ar
    20     8     9   ar
    21     9    10   ar
    22    10    11   ar
    23    11    12   ar
    24    12    13    1
    25    13    14    1
    26     1    15    1
    27    15    16   ar
    28    16    17   ar
    29    17    18   ar
    30    18    19   ar
    31    19    22    1
    32    22    23    1
    33    19    20   ar
    34    20    21    1
    35    29    30   ar
    36    30    31   ar
    37    31    35    1
    38    35    36    1
    39    31    32   ar
    40    32    27   ar
    41    12     2   ar
    42    20    15   ar
    43    10     4   ar
    44    25    26    1
@<TRIPOS>MOLECULE
*****
 41 44 0 0 0
SMALL
GASTEIGER

@<TRIPOS>ATOM
      1 C         141.6159  141.4135  163.4776 C.3     1  UNL1        0.0799
      2 C         142.0881  141.6849  164.8753 C.ar    1  UNL1        0.0374
      3 C         141.3533  141.0958  166.0428 C.ar    1  UNL1        0.0023
      4 C         141.8255  141.3671  167.4405 C.ar    1  UNL1        0.0181
      5 C         141.0907  140.7781  168.6080 C.ar    1  UNL1        0.0082
      6 C         141.5629  141.0494  170.0057 C.ar    1  UNL1        0.0347
      7 BR        140.8281  140.4604  171.1732 Br      1  UNL1       -0.0490
      8 C         142.7698  141.9097  170.2358 C.ar    1  UNL1        0.0082
      9 C         143.5047  142.4988  169.0683 C.ar    1  UNL1        0.0197
     10 C         143.0325  142.2275  167.6707 C.ar    1  UNL1        0.0844
     11 N         143.7673  142.8165  166.5032 N.ar    1  UNL1       -0.2119
     12 C         143.2951  142.5452  165.1055 C.ar    1  UNL1        0.2211
     13 O         144.0299  143.1342  163.9380 O.3     1  UNL1       -0.4563
     14 C         143.9047  144.5978  163.6340 C.3     1  UNL1        0.2542
     15 C         142.4574  140.5901  162.5483 C.ar    1  UNL1        0.0148
     16 C         142.8707  139.2028  162.9413 C.ar    1  UNL1       -0.0014
     17 C         143.7122  138.3792  162.0119 C.ar    1  UNL1        0.0029
     18 C         144.1404  138.9431  160.6895 C.ar    1  UNL1        0.0392
     19 C         143.7272  140.3305  160.2965 C.ar    1  UNL1        0.1657
     20 C         142.8857  141.1540  161.2259 C.ar    1  UNL1        0.1702
     21 F         142.4724  142.5413  160.8329 F       1  UNL1       -0.2013
     22 O         144.1554  140.8944  158.9742 O.3     1  UNL1       -0.4692
     23 C         143.7474  140.2140  157.7011 C.3     1  UNL1        0.2526
     24 C         140.3022  141.9657  163.0094 C.3     1  UNL1        0.1162
     25 O         140.8307  143.3602  163.1710 O.3     1  UNL1       -0.3820
     26 H         140.1437  143.9974  162.9203 H       1  UNL1        0.2107
     27 C         138.8627  138.3749  163.8949 C.ar    1  UNL1        0.2272
     28 C         139.3912  139.7694  164.0564 C.ar    1  UNL1        0.0559
     29 C         139.7737  140.5712  162.8479 C.ar    1  UNL1        0.0117
     30 C         139.6277  139.9785  161.4777 C.ar    1  UNL1        0.0559
     31 C         139.0991  138.5841  161.3161 C.ar    1  UNL1        0.2272
     32 N         138.7166  137.7823  162.5247 N.ar    1  UNL1       -0.1767
     33 C         138.0559  138.2699  166.3623 C.3     1  UNL1        0.2542
     34 O         138.4802  137.5731  165.1036 O.3     1  UNL1       -0.4561
     35 O         138.9531  137.9914  159.9459 O.3     1  UNL1       -0.4561
     36 C         139.8511  138.4446  158.8332 C.3     1  UNL1        0.2542
     37 C         138.9885  142.5179  162.5412 C.3     1  UNL1        0.0491
     38 C         138.9219  143.8940  161.9480 C.3     1  UNL1        0.0750
     39 N         139.5241  144.1596  160.6001 N.3     1  UNL1       -0.2702
     40 C         139.3480  143.1654  159.4909 C.3     1  UNL1        0.0897
     41 C         140.3024  145.4195  160.3615 C.3     1  UNL1        0.0897
@<TRIPOS>BOND
     1    33    34    1
     2    34    27    1
     3    27    28   ar
     4    28    29   ar
     5    29    24    1
     6    24    25    1
     7    24    37    1
     8    37    38    1
     9    38    39    1
    10    39    40    1
    11    39    41    1
    12    24     1    1
    13     1     2    1
    14     2     3   ar
    15     3     4   ar
    16     4     5   ar
    17     5     6   ar
    18     6     7    1
    19     6     8   ar
    20     8     9   ar
    21     9    10   ar
    22    10    11   ar
    23    11    12   ar
    24    12    13    1
    25    13    14    1
    26     1    15    1
    27    15    16   ar
    28    16    17   ar
    29    17    18   ar
    30    18    19   ar
    31    19    22    1
    32    22    23    1
    33    19    20   ar
    34    20    21    1
    35    29    30   ar
    36    30    31   ar
    37    31    35    1
    38    35    36    1
    39    31    32   ar
    40    32    27   ar
    41    12     2   ar
    42    20    15   ar
    43    10     4   ar
    44    25    26    1
