@<TRIPOS>MOLECULE
*****
 35 39 0 0 0
SMALL
GASTEIGER

@<TRIPOS>ATOM
      1 C         141.3770  144.4812  161.3758 C.ar    1  UNL1        0.0447
      2 C         140.1065  145.2702  161.4909 C.ar    1  UNL1        0.0156
      3 C         139.3435  145.2789  162.7823 C.ar    1  UNL1        0.0159
      4 C         139.8511  144.4986  163.9586 C.ar    1  UNL1        0.0507
      5 C         141.1215  143.7096  163.8434 C.ar    1  UNL1        0.0192
      6 C         141.8845  143.7009  162.5520 C.ar    1  UNL1        0.0157
      7 C         141.3738  143.0421  165.1628 C.2     1  UNL1        0.0578
      8 C         142.5366  142.1541  165.4935 C.2     1  UNL1        0.0383
      9 C         140.2593  143.4186  166.0934 C.2     1  UNL1        0.2496
     10 O         140.1118  142.9731  167.5182 O.2     1  UNL1       -0.2698
     11 N         139.3181  144.3187  165.3492 N.am    1  UNL1       -0.2804
     12 H         138.4951  144.7209  165.7100 H       1  UNL1        0.1552
     13 C         142.6565  141.5543  166.8632 C.ar    1  UNL1        0.0031
     14 C         142.2096  140.1431  167.1057 C.ar    1  UNL1        0.0010
     15 C         142.3295  139.5433  168.4753 C.ar    1  UNL1        0.0114
     16 C         142.8963  140.3547  169.6024 C.ar    1  UNL1        0.0577
     17 CL        143.0162  139.7548  170.9721 Cl      1  UNL1       -0.0822
     18 C         143.3432  141.7659  169.3599 C.ar    1  UNL1        0.0114
     19 C         143.2233  142.3657  167.9903 C.ar    1  UNL1        0.0010
     20 C         143.5795  141.8658  164.4547 C.ar    1  UNL1        0.1407
     21 N         143.5231  140.7736  163.4281 N.ar    1  UNL1       -0.2254
     22 C         144.7706  140.8518  162.5990 C.ar    1  UNL1        0.1189
     23 C         145.5981  141.9924  163.1131 C.ar    1  UNL1        0.0945
     24 N         144.8620  142.6191  164.2599 N.ar    1  UNL1       -0.3361
     25 H         145.1670  143.3896  164.7915 H       1  UNL1        0.1674
     26 N         142.1400  144.4725  160.0843 N.pl3   1  UNL1       -0.3339
     27 H         143.1177  144.3569  160.0910 H       1  UNL1        0.1468
     28 N         139.9604  144.9745  156.1796 N.3     1  UNL1       -0.2726
     29 C         139.6577  143.7998  157.0618 C.3     1  UNL1        0.0738
     30 C         140.3843  143.6324  158.3635 C.3     1  UNL1        0.0368
     31 C         141.4135  144.6398  158.7828 C.3     1  UNL1        0.0718
     32 C         141.7162  145.8146  157.9005 C.3     1  UNL1        0.0368
     33 C         140.9896  145.9819  156.5989 C.3     1  UNL1        0.0738
     34 C         137.7503  145.3632  154.8703 C.3     1  UNL1        0.0188
     35 C         139.2338  145.1419  154.8781 C.3     1  UNL1        0.0721
@<TRIPOS>BOND
     1    34    35    1
     2    35    28    1
     3    28    29    1
     4    29    30    1
     5    30    31    1
     6    31    26    1
     7    26     1    1
     8     1     2   ar
     9     2     3   ar
    10     3     4   ar
    11     4     5   ar
    12     5     6   ar
    13     5     7    1
    14     7     8    2
    15     8    13    1
    16    13    14   ar
    17    14    15   ar
    18    15    16   ar
    19    16    17    1
    20    16    18   ar
    21    18    19   ar
    22     8    20    1
    23    20    21   ar
    24    21    22   ar
    25    22    23   ar
    26    23    24   ar
    27     7     9    1
    28     9    10    2
    29     9    11   am
    30    31    32    1
    31    32    33    1
    32    33    28    1
    33     6     1   ar
    34    19    13   ar
    35    24    20   ar
    36    11     4    1
    37    26    27    1
    38    24    25    1
    39    11    12    1
@<TRIPOS>MOLECULE
*****
 35 39 0 0 0
SMALL
GASTEIGER

@<TRIPOS>ATOM
      1 C         141.4406  144.5769  161.1665 C.ar    1  UNL1        0.0447
      2 C         140.1910  145.4004  161.2674 C.ar    1  UNL1        0.0156
      3 C         139.4164  145.4336  162.5515 C.ar    1  UNL1        0.0159
      4 C         139.8915  144.6434  163.7346 C.ar    1  UNL1        0.0507
      5 C         141.1411  143.8199  163.6337 C.ar    1  UNL1        0.0192
      6 C         141.9157  143.7866  162.3497 C.ar    1  UNL1        0.0157
      7 C         141.3628  143.1498  164.9573 C.2     1  UNL1        0.0578
      8 C         142.4978  142.2316  165.3015 C.2     1  UNL1        0.0383
      9 C         140.2501  143.5592  165.8762 C.2     1  UNL1        0.2496
     10 O         140.0772  143.1221  167.3008 O.2     1  UNL1       -0.2698
     11 N         139.3408  144.4823  165.1206 N.am    1  UNL1       -0.2804
     12 H         138.5256  144.9077  165.4725 H       1  UNL1        0.1552
     13 C         142.5885  141.6329  166.6738 C.ar    1  UNL1        0.0031
     14 C         142.0149  140.2723  166.9379 C.ar    1  UNL1        0.0010
     15 C         142.1056  139.6736  168.3103 C.ar    1  UNL1        0.0114
     16 C         142.7699  140.4355  169.4185 C.ar    1  UNL1        0.0577
     17 CL        142.8605  139.8367  170.7909 Cl      1  UNL1       -0.0822
     18 C         143.3435  141.7960  169.1544 C.ar    1  UNL1        0.0114
     19 C         143.2528  142.3947  167.7821 C.ar    1  UNL1        0.0010
     20 C         143.5422  141.9120  164.2734 C.ar    1  UNL1        0.1407
     21 N         144.8471  142.6287  164.0898 N.ar    1  UNL1       -0.2254
     22 C         145.5766  141.9794  162.9513 C.ar    1  UNL1        0.1189
     23 C         144.7225  140.8612  162.4312 C.ar    1  UNL1        0.0945
     24 N         143.4653  140.8196  163.2483 N.ar    1  UNL1       -0.3361
     25 H         142.7204  140.1864  163.1321 H       1  UNL1        0.1674
     26 N         142.2153  144.5436  159.8824 N.pl3   1  UNL1       -0.3339
     27 H         142.5526  145.3807  159.4892 H       1  UNL1        0.1468
     28 N         142.9972  140.6172  157.8275 N.3     1  UNL1       -0.2726
     29 C         141.6272  141.2264  157.7846 C.3     1  UNL1        0.0738
     30 C         141.3665  142.5352  158.4696 C.3     1  UNL1        0.0368
     31 C         142.4759  143.2348  159.1974 C.3     1  UNL1        0.0718
     32 C         143.8460  142.6256  159.2404 C.3     1  UNL1        0.0368
     33 C         144.1066  141.3168  158.5554 C.3     1  UNL1        0.0738
     34 C         142.6997  138.0388  157.7138 C.3     1  UNL1        0.0188
     35 C         143.2579  139.3085  157.1426 C.3     1  UNL1        0.0721
@<TRIPOS>BOND
     1    34    35    1
     2    35    28    1
     3    28    29    1
     4    29    30    1
     5    30    31    1
     6    31    26    1
     7    26     1    1
     8     1     2   ar
     9     2     3   ar
    10     3     4   ar
    11     4     5   ar
    12     5     6   ar
    13     5     7    1
    14     7     8    2
    15     8    13    1
    16    13    14   ar
    17    14    15   ar
    18    15    16   ar
    19    16    17    1
    20    16    18   ar
    21    18    19   ar
    22     8    20    1
    23    20    21   ar
    24    21    22   ar
    25    22    23   ar
    26    23    24   ar
    27     7     9    1
    28     9    10    2
    29     9    11   am
    30    31    32    1
    31    32    33    1
    32    33    28    1
    33     6     1   ar
    34    19    13   ar
    35    24    20   ar
    36    11     4    1
    37    26    27    1
    38    24    25    1
    39    11    12    1
@<TRIPOS>MOLECULE
*****
 35 39 0 0 0
SMALL
GASTEIGER

@<TRIPOS>ATOM
      1 C         138.7639  139.5300  164.5198 C.ar    1  UNL1        0.0447
      2 C         138.9079  138.0495  164.3268 C.ar    1  UNL1        0.0156
      3 C         139.1619  137.4929  162.9573 C.ar    1  UNL1        0.0159
      4 C         139.2719  138.4168  161.7807 C.ar    1  UNL1        0.0507
      5 C         139.1279  139.8974  161.9737 C.ar    1  UNL1        0.0192
      6 C         138.8739  140.4540  163.3432 C.ar    1  UNL1        0.0157
      7 C         139.2833  140.5565  160.6353 C.2     1  UNL1        0.0578
      8 C         139.2112  142.0301  160.3646 C.2     1  UNL1        0.0383
      9 C         139.5233  139.4834  159.6151 C.2     1  UNL1        0.2496
     10 O         139.7335  139.6955  158.1451 O.2     1  UNL1       -0.2698
     11 N         139.5163  138.1609  160.3230 N.am    1  UNL1       -0.2804
     12 H         139.6488  137.2798  159.9044 H       1  UNL1        0.1552
     13 C         139.3868  142.5454  158.9669 C.ar    1  UNL1        0.0031
     14 C         140.7428  142.9754  158.4909 C.ar    1  UNL1        0.0010
     15 C         140.9184  143.4907  157.0931 C.ar    1  UNL1        0.0114
     16 C         139.7381  143.5759  156.1714 C.ar    1  UNL1        0.0577
     17 CL        139.9138  144.0912  154.7736 Cl      1  UNL1       -0.0822
     18 C         138.3822  143.1459  156.6474 C.ar    1  UNL1        0.0114
     19 C         138.2066  142.6307  158.0451 C.ar    1  UNL1        0.0010
     20 C         138.9636  142.9885  161.4916 C.ar    1  UNL1        0.1407
     21 N         140.0148  143.6702  162.3163 N.ar    1  UNL1       -0.2254
     22 C         139.3223  144.5365  163.3262 C.ar    1  UNL1        0.1189
     23 C         137.8429  144.3903  163.1256 C.ar    1  UNL1        0.0945
     24 N         137.6212  143.4336  161.9918 N.ar    1  UNL1       -0.3361
     25 H         136.7480  143.1479  161.6380 H       1  UNL1        0.1674
     26 N         138.5099  140.0867  165.8893 N.pl3   1  UNL1       -0.3339
     27 H         137.5928  140.3139  166.1660 H       1  UNL1        0.1468
     28 N         141.9396  140.7180  168.7333 N.3     1  UNL1       -0.2726
     29 C         142.1258  140.9694  167.2663 C.3     1  UNL1        0.0738
     30 C         140.9825  140.7590  166.3183 C.3     1  UNL1        0.0368
     31 C         139.6531  140.2972  166.8373 C.3     1  UNL1        0.0718
     32 C         139.4670  140.0458  168.3044 C.3     1  UNL1        0.0368
     33 C         140.6102  140.2562  169.2523 C.3     1  UNL1        0.0738
     34 C         143.7310  142.2771  169.7870 C.3     1  UNL1        0.0188
     35 C         143.0829  140.9285  169.6812 C.3     1  UNL1        0.0721
@<TRIPOS>BOND
     1    34    35    1
     2    35    28    1
     3    28    29    1
     4    29    30    1
     5    30    31    1
     6    31    26    1
     7    26     1    1
     8     1     2   ar
     9     2     3   ar
    10     3     4   ar
    11     4     5   ar
    12     5     6   ar
    13     5     7    1
    14     7     8    2
    15     8    13    1
    16    13    14   ar
    17    14    15   ar
    18    15    16   ar
    19    16    17    1
    20    16    18   ar
    21    18    19   ar
    22     8    20    1
    23    20    21   ar
    24    21    22   ar
    25    22    23   ar
    26    23    24   ar
    27     7     9    1
    28     9    10    2
    29     9    11   am
    30    31    32    1
    31    32    33    1
    32    33    28    1
    33     6     1   ar
    34    19    13   ar
    35    24    20   ar
    36    11     4    1
    37    26    27    1
    38    24    25    1
    39    11    12    1
@<TRIPOS>MOLECULE
*****
 35 39 0 0 0
SMALL
GASTEIGER

@<TRIPOS>ATOM
      1 C         139.6430  139.3427  161.1141 C.ar    1  UNL1        0.0447
      2 C         138.8002  138.1273  161.3640 C.ar    1  UNL1        0.0156
      3 C         138.5080  137.6935  162.7698 C.ar    1  UNL1        0.0159
      4 C         139.0585  138.4751  163.9257 C.ar    1  UNL1        0.0507
      5 C         139.9012  139.6906  163.6757 C.ar    1  UNL1        0.0192
      6 C         140.1935  140.1243  162.2699 C.ar    1  UNL1        0.0157
      7 C         140.3035  140.2571  165.0051 C.2     1  UNL1        0.0578
      8 C         141.1510  141.4751  165.2244 C.2     1  UNL1        0.0383
      9 C         139.7093  139.3918  166.0767 C.2     1  UNL1        0.2496
     10 O         139.8585  139.5926  167.5557 O.2     1  UNL1       -0.2698
     11 N         138.9399  138.2905  165.4096 N.am    1  UNL1       -0.2804
     12 H         138.4441  137.5725  165.8656 H       1  UNL1        0.1552
     13 C         141.4721  141.9242  166.6191 C.ar    1  UNL1        0.0031
     14 C         140.4673  142.7164  167.4019 C.ar    1  UNL1        0.0010
     15 C         140.7884  143.1655  168.7966 C.ar    1  UNL1        0.0114
     16 C         142.1143  142.8225  169.4085 C.ar    1  UNL1        0.0577
     17 CL        142.4353  143.2717  170.8032 Cl      1  UNL1       -0.0822
     18 C         143.1191  142.0304  168.6256 C.ar    1  UNL1        0.0114
     19 C         142.7980  141.5812  167.2309 C.ar    1  UNL1        0.0010
     20 C         141.6775  142.2440  164.0490 C.ar    1  UNL1        0.1407
     21 N         140.9847  143.3801  163.3567 N.ar    1  UNL1       -0.2254
     22 C         141.8682  143.8502  162.2394 C.ar    1  UNL1        0.1189
     23 C         143.1072  143.0045  162.2411 C.ar    1  UNL1        0.0945
     24 N         142.9893  142.0119  163.3595 N.ar    1  UNL1       -0.3361
     25 H         143.6559  141.3281  163.5989 H       1  UNL1        0.1674
     26 N         139.9352  139.7766  159.7082 N.pl3   1  UNL1       -0.3339
     27 H         139.6986  140.6859  159.4144 H       1  UNL1        0.1468
     28 N         141.8936  136.9216  156.8335 N.3     1  UNL1       -0.2726
     29 C         140.4590  137.3146  156.6399 C.3     1  UNL1        0.0738
     30 C         139.8062  138.2663  157.5981 C.3     1  UNL1        0.0368
     31 C         140.5880  138.8249  158.7500 C.3     1  UNL1        0.0718
     32 C         142.0226  138.4319  158.9435 C.3     1  UNL1        0.0368
     33 C         142.6754  137.4803  157.9853 C.3     1  UNL1        0.0738
     34 C         144.0227  136.0540  155.6235 C.3     1  UNL1        0.0188
     35 C         142.5464  135.9700  155.8753 C.3     1  UNL1        0.0721
@<TRIPOS>BOND
     1    34    35    1
     2    35    28    1
     3    28    29    1
     4    29    30    1
     5    30    31    1
     6    31    26    1
     7    26     1    1
     8     1     2   ar
     9     2     3   ar
    10     3     4   ar
    11     4     5   ar
    12     5     6   ar
    13     5     7    1
    14     7     8    2
    15     8    13    1
    16    13    14   ar
    17    14    15   ar
    18    15    16   ar
    19    16    17    1
    20    16    18   ar
    21    18    19   ar
    22     8    20    1
    23    20    21   ar
    24    21    22   ar
    25    22    23   ar
    26    23    24   ar
    27     7     9    1
    28     9    10    2
    29     9    11   am
    30    31    32    1
    31    32    33    1
    32    33    28    1
    33     6     1   ar
    34    19    13   ar
    35    24    20   ar
    36    11     4    1
    37    26    27    1
    38    24    25    1
    39    11    12    1
@<TRIPOS>MOLECULE
*****
 35 39 0 0 0
SMALL
GASTEIGER

@<TRIPOS>ATOM
      1 C         138.5584  140.1374  161.3786 C.ar    1  UNL1        0.0447
      2 C         138.2036  138.6859  161.5098 C.ar    1  UNL1        0.0156
      3 C         138.4813  137.9589  162.7920 C.ar    1  UNL1        0.0159
      4 C         139.1139  138.6834  163.9431 C.ar    1  UNL1        0.0507
      5 C         139.4687  140.1349  163.8120 C.ar    1  UNL1        0.0192
      6 C         139.1909  140.8619  162.5297 C.ar    1  UNL1        0.0157
      7 C         140.0781  140.5820  165.1076 C.2     1  UNL1        0.0578
      8 C         140.5780  141.9620  165.4169 C.2     1  UNL1        0.0383
      9 C         140.1000  139.4068  166.0395 C.2     1  UNL1        0.2496
     10 O         140.6256  139.4054  167.4445 O.2     1  UNL1       -0.2698
     11 N         139.5041  138.2334  165.3199 N.am    1  UNL1       -0.2804
     12 H         139.3892  137.3270  165.6867 H       1  UNL1        0.1552
     13 C         141.1658  142.2624  166.7638 C.ar    1  UNL1        0.0031
     14 C         140.2936  142.7980  167.8603 C.ar    1  UNL1        0.0010
     15 C         140.8814  143.0983  169.2073 C.ar    1  UNL1        0.0114
     16 C         142.3415  142.8632  169.4577 C.ar    1  UNL1        0.0577
     17 CL        142.9293  143.1636  170.8047 Cl      1  UNL1       -0.0822
     18 C         143.2138  142.3276  168.3612 C.ar    1  UNL1        0.0114
     19 C         142.6259  142.0272  167.0143 C.ar    1  UNL1        0.0010
     20 C         140.4900  143.0417  164.3794 C.ar    1  UNL1        0.1407
     21 N         139.3307  143.9702  164.1692 N.ar    1  UNL1       -0.2254
     22 C         139.6699  144.8849  163.0299 C.ar    1  UNL1        0.1189
     23 C         141.0389  144.5217  162.5358 C.ar    1  UNL1        0.0945
     24 N         141.5457  143.3826  163.3698 N.ar    1  UNL1       -0.3361
     25 H         142.4181  142.9370  163.2718 H       1  UNL1        0.1674
     26 N         138.2806  140.8645  160.0963 N.pl3   1  UNL1       -0.3339
     27 H         137.4134  140.7514  159.6441 H       1  UNL1        0.1468
     28 N         141.4110  143.5629  158.3161 N.3     1  UNL1       -0.2726
     29 C         141.5894  142.0743  158.2692 C.3     1  UNL1        0.0738
     30 C         140.5459  141.1748  158.8626 C.3     1  UNL1        0.0368
     31 C         139.3241  141.7639  159.5029 C.3     1  UNL1        0.0718
     32 C         139.1457  143.2526  159.5498 C.3     1  UNL1        0.0368
     33 C         140.1892  144.1521  158.9564 C.3     1  UNL1        0.0738
     34 C         142.1069  145.8748  157.3565 C.3     1  UNL1        0.0188
     35 C         142.4545  144.4623  157.7227 C.3     1  UNL1        0.0721
@<TRIPOS>BOND
     1    34    35    1
     2    35    28    1
     3    28    29    1
     4    29    30    1
     5    30    31    1
     6    31    26    1
     7    26     1    1
     8     1     2   ar
     9     2     3   ar
    10     3     4   ar
    11     4     5   ar
    12     5     6   ar
    13     5     7    1
    14     7     8    2
    15     8    13    1
    16    13    14   ar
    17    14    15   ar
    18    15    16   ar
    19    16    17    1
    20    16    18   ar
    21    18    19   ar
    22     8    20    1
    23    20    21   ar
    24    21    22   ar
    25    22    23   ar
    26    23    24   ar
    27     7     9    1
    28     9    10    2
    29     9    11   am
    30    31    32    1
    31    32    33    1
    32    33    28    1
    33     6     1   ar
    34    19    13   ar
    35    24    20   ar
    36    11     4    1
    37    26    27    1
    38    24    25    1
    39    11    12    1
@<TRIPOS>MOLECULE
*****
 35 39 0 0 0
SMALL
GASTEIGER

@<TRIPOS>ATOM
      1 C         141.0685  144.4280  163.1378 C.ar    1  UNL1        0.0447
      2 C         140.0895  145.4369  162.6147 C.ar    1  UNL1        0.0156
      3 C         140.0586  145.7629  161.1509 C.ar    1  UNL1        0.0159
      4 C         141.0067  145.0800  160.2102 C.ar    1  UNL1        0.0507
      5 C         141.9857  144.0711  160.7334 C.ar    1  UNL1        0.0192
      6 C         142.0166  143.7451  162.1971 C.ar    1  UNL1        0.0157
      7 C         142.7918  143.5635  159.5747 C.2     1  UNL1        0.0578
      8 C         143.8865  142.5403  159.6433 C.2     1  UNL1        0.0383
      9 C         142.3110  144.2586  158.3355 C.2     1  UNL1        0.2496
     10 O         142.8405  144.0525  156.9472 O.2     1  UNL1       -0.2698
     11 N         141.2077  145.1959  158.7282 N.am    1  UNL1       -0.2804
     12 H         140.7040  145.7839  158.1201 H       1  UNL1        0.1552
     13 C         144.6080  142.1290  158.3941 C.ar    1  UNL1        0.0031
     14 C         144.0383  141.0521  157.5191 C.ar    1  UNL1        0.0010
     15 C         144.7598  140.6408  156.2699 C.ar    1  UNL1        0.0114
     16 C         146.0510  141.3064  155.8959 C.ar    1  UNL1        0.0577
     17 CL        146.7724  140.8951  154.6467 Cl      1  UNL1       -0.0822
     18 C         146.6206  142.3833  156.7710 C.ar    1  UNL1        0.0114
     19 C         145.8991  142.7946  158.0201 C.ar    1  UNL1        0.0010
     20 C         144.2598  141.9284  160.9609 C.ar    1  UNL1        0.1407
     21 N         143.7086  140.6542  161.5290 N.ar    1  UNL1       -0.2254
     22 C         144.3579  140.4214  162.8609 C.ar    1  UNL1        0.1189
     23 C         145.3104  141.5518  163.1161 C.ar    1  UNL1        0.0945
     24 N         145.2498  142.4831  161.9419 N.ar    1  UNL1       -0.3361
     25 H         145.7686  143.3128  161.8339 H       1  UNL1        0.1674
     26 N         141.0995  144.1019  164.6017 N.pl3   1  UNL1       -0.3339
     27 H         141.5528  144.7078  165.2315 H       1  UNL1        0.1468
     28 N         139.1204  140.3543  166.1144 N.3     1  UNL1       -0.2726
     29 C         140.4145  140.8147  166.7171 C.3     1  UNL1        0.0738
     30 C         141.0743  142.0640  166.2129 C.3     1  UNL1        0.0368
     31 C         140.4399  142.8527  165.1059 C.3     1  UNL1        0.0718
     32 C         139.1457  142.3923  164.5032 C.3     1  UNL1        0.0368
     33 C         138.4860  141.1431  165.0075 C.3     1  UNL1        0.0738
     34 C         138.4736  137.8601  165.7822 C.3     1  UNL1        0.0188
     35 C         138.4608  139.1051  166.6187 C.3     1  UNL1        0.0721
@<TRIPOS>BOND
     1    34    35    1
     2    35    28    1
     3    28    29    1
     4    29    30    1
     5    30    31    1
     6    31    26    1
     7    26     1    1
     8     1     2   ar
     9     2     3   ar
    10     3     4   ar
    11     4     5   ar
    12     5     6   ar
    13     5     7    1
    14     7     8    2
    15     8    13    1
    16    13    14   ar
    17    14    15   ar
    18    15    16   ar
    19    16    17    1
    20    16    18   ar
    21    18    19   ar
    22     8    20    1
    23    20    21   ar
    24    21    22   ar
    25    22    23   ar
    26    23    24   ar
    27     7     9    1
    28     9    10    2
    29     9    11   am
    30    31    32    1
    31    32    33    1
    32    33    28    1
    33     6     1   ar
    34    19    13   ar
    35    24    20   ar
    36    11     4    1
    37    26    27    1
    38    24    25    1
    39    11    12    1
@<TRIPOS>MOLECULE
*****
 35 39 0 0 0
SMALL
GASTEIGER

@<TRIPOS>ATOM
      1 C         138.7530  139.5633  164.5184 C.ar    1  UNL1        0.0447
      2 C         138.9365  138.0874  164.3237 C.ar    1  UNL1        0.0156
      3 C         139.2679  137.5457  162.9648 C.ar    1  UNL1        0.0159
      4 C         139.4157  138.4799  161.8005 C.ar    1  UNL1        0.0507
      5 C         139.2322  139.9558  161.9952 C.ar    1  UNL1        0.0192
      6 C         138.9008  140.4975  163.3541 C.ar    1  UNL1        0.0157
      7 C         139.4386  140.6273  160.6699 C.2     1  UNL1        0.0578
      8 C         139.3495  142.1010  160.4049 C.2     1  UNL1        0.0383
      9 C         139.7497  139.5664  159.6561 C.2     1  UNL1        0.2496
     10 O         140.0263  139.7930  158.1993 O.2     1  UNL1       -0.2698
     11 N         139.7355  138.2392  160.3549 N.am    1  UNL1       -0.2804
     12 H         139.9062  137.3639  159.9379 H       1  UNL1        0.1552
     13 C         139.5819  142.6295  159.0205 C.ar    1  UNL1        0.0031
     14 C         138.4382  142.7336  158.0556 C.ar    1  UNL1        0.0010
     15 C         138.6707  143.2621  156.6711 C.ar    1  UNL1        0.0114
     16 C         140.0468  143.6866  156.2516 C.ar    1  UNL1        0.0577
     17 CL        140.2792  144.2151  154.8671 Cl      1  UNL1       -0.0822
     18 C         141.1905  143.5826  157.2166 C.ar    1  UNL1        0.0114
     19 C         140.9581  143.0541  158.6010 C.ar    1  UNL1        0.0010
     20 C         139.0280  143.0463  161.5243 C.ar    1  UNL1        0.1407
     21 N         140.0240  143.7490  162.3985 N.ar    1  UNL1       -0.2254
     22 C         139.2658  144.5919  163.3805 C.ar    1  UNL1        0.1189
     23 C         137.8009  144.4101  163.1134 C.ar    1  UNL1        0.0945
     24 N         137.6540  143.4549  161.9662 N.ar    1  UNL1       -0.3361
     25 H         136.8048  143.1497  161.5725 H       1  UNL1        0.1674
     26 N         138.4216  140.1051  165.8773 N.pl3   1  UNL1       -0.3339
     27 H         137.4849  140.2866  166.1199 H       1  UNL1        0.1468
     28 N         141.7092  140.9011  168.8452 N.3     1  UNL1       -0.2726
     29 C         140.5016  140.1127  169.2573 C.3     1  UNL1        0.0738
     30 C         139.4056  139.8473  168.2680 C.3     1  UNL1        0.0368
     31 C         139.5175  140.3705  166.8666 C.3     1  UNL1        0.0718
     32 C         140.7252  141.1589  166.4545 C.3     1  UNL1        0.0368
     33 C         141.8210  141.4243  167.4438 C.3     1  UNL1        0.0738
     34 C         143.7462  142.3148  169.6211 C.3     1  UNL1        0.0188
     35 C         142.8050  141.1665  169.8344 C.3     1  UNL1        0.0721
@<TRIPOS>BOND
     1    34    35    1
     2    35    28    1
     3    28    29    1
     4    29    30    1
     5    30    31    1
     6    31    26    1
     7    26     1    1
     8     1     2   ar
     9     2     3   ar
    10     3     4   ar
    11     4     5   ar
    12     5     6   ar
    13     5     7    1
    14     7     8    2
    15     8    13    1
    16    13    14   ar
    17    14    15   ar
    18    15    16   ar
    19    16    17    1
    20    16    18   ar
    21    18    19   ar
    22     8    20    1
    23    20    21   ar
    24    21    22   ar
    25    22    23   ar
    26    23    24   ar
    27     7     9    1
    28     9    10    2
    29     9    11   am
    30    31    32    1
    31    32    33    1
    32    33    28    1
    33     6     1   ar
    34    19    13   ar
    35    24    20   ar
    36    11     4    1
    37    26    27    1
    38    24    25    1
    39    11    12    1
@<TRIPOS>MOLECULE
*****
 35 39 0 0 0
SMALL
GASTEIGER

@<TRIPOS>ATOM
      1 C         141.5373  139.1468  160.8651 C.ar    1  UNL1        0.0447
      2 C         142.8213  138.3715  160.8523 C.ar    1  UNL1        0.0156
      3 C         143.6002  138.1895  162.1212 C.ar    1  UNL1        0.0159
      4 C         143.0951  138.7828  163.4029 C.ar    1  UNL1        0.0507
      5 C         141.8110  139.5581  163.4158 C.ar    1  UNL1        0.0192
      6 C         141.0321  139.7401  162.1469 C.ar    1  UNL1        0.0157
      7 C         141.5646  140.0235  164.8203 C.2     1  UNL1        0.0578
      8 C         140.3923  140.8342  165.2875 C.2     1  UNL1        0.0383
      9 C         142.6964  139.5359  165.6755 C.2     1  UNL1        0.2496
     10 O         142.8544  139.7734  167.1482 O.2     1  UNL1       -0.2698
     11 N         143.6423  138.7691  164.7996 N.am    1  UNL1       -0.2804
     12 H         144.4758  138.3333  165.0902 H       1  UNL1        0.1552
     13 C         140.2799  141.2277  166.7306 C.ar    1  UNL1        0.0031
     14 C         140.7788  142.5678  167.1836 C.ar    1  UNL1        0.0010
     15 C         140.6665  142.9613  168.6267 C.ar    1  UNL1        0.0114
     16 C         140.0552  142.0147  169.6168 C.ar    1  UNL1        0.0577
     17 CL        139.9429  142.4083  171.0599 Cl      1  UNL1       -0.0822
     18 C         139.5563  140.6746  169.1638 C.ar    1  UNL1        0.0114
     19 C         139.6687  140.2811  167.7207 C.ar    1  UNL1        0.0010
     20 C         139.3323  141.2515  164.3117 C.ar    1  UNL1        0.1407
     21 N         138.1019  140.4695  163.9586 N.ar    1  UNL1       -0.2254
     22 C         137.3256  141.2586  162.9464 C.ar    1  UNL1        0.1189
     23 C         138.0763  142.5284  162.6738 C.ar    1  UNL1        0.0945
     24 N         139.3164  142.5240  163.5176 N.ar    1  UNL1       -0.3361
     25 H         139.9999  143.2320  163.5454 H       1  UNL1        0.1674
     26 N         140.7583  139.3288  159.5962 N.pl3   1  UNL1       -0.3339
     27 H         140.3751  138.5465  159.1373 H       1  UNL1        0.1468
     28 N         140.1729  143.4501  157.8868 N.3     1  UNL1       -0.2726
     29 C         139.0891  142.8183  158.7091 C.3     1  UNL1        0.0738
     30 C         139.2842  141.4445  159.2789 C.3     1  UNL1        0.0368
     31 C         140.5632  140.7025  159.0264 C.3     1  UNL1        0.0718
     32 C         141.6470  141.3344  158.2041 C.3     1  UNL1        0.0368
     33 C         141.4519  142.7081  157.6344 C.3     1  UNL1        0.0738
     34 C         140.9844  145.9008  157.5944 C.3     1  UNL1        0.0188
     35 C         139.9778  144.8238  157.3171 C.3     1  UNL1        0.0721
@<TRIPOS>BOND
     1    34    35    1
     2    35    28    1
     3    28    29    1
     4    29    30    1
     5    30    31    1
     6    31    26    1
     7    26     1    1
     8     1     2   ar
     9     2     3   ar
    10     3     4   ar
    11     4     5   ar
    12     5     6   ar
    13     5     7    1
    14     7     8    2
    15     8    13    1
    16    13    14   ar
    17    14    15   ar
    18    15    16   ar
    19    16    17    1
    20    16    18   ar
    21    18    19   ar
    22     8    20    1
    23    20    21   ar
    24    21    22   ar
    25    22    23   ar
    26    23    24   ar
    27     7     9    1
    28     9    10    2
    29     9    11   am
    30    31    32    1
    31    32    33    1
    32    33    28    1
    33     6     1   ar
    34    19    13   ar
    35    24    20   ar
    36    11     4    1
    37    26    27    1
    38    24    25    1
    39    11    12    1
@<TRIPOS>MOLECULE
*****
 35 39 0 0 0
SMALL
GASTEIGER

@<TRIPOS>ATOM
      1 C         138.5092  140.8658  160.8739 C.ar    1  UNL1        0.0447
      2 C         137.8550  139.5184  160.9540 C.ar    1  UNL1        0.0156
      3 C         137.8837  138.7461  162.2396 C.ar    1  UNL1        0.0159
      4 C         138.5667  139.3212  163.4449 C.ar    1  UNL1        0.0507
      5 C         139.2209  140.6686  163.3648 C.ar    1  UNL1        0.0192
      6 C         139.1922  141.4409  162.0792 C.ar    1  UNL1        0.0157
      7 C         139.8138  140.9766  164.7077 C.2     1  UNL1        0.0578
      8 C         140.5629  142.2229  165.0758 C.2     1  UNL1        0.0383
      9 C         139.5260  139.8196  165.6179 C.2     1  UNL1        0.2496
     10 O         139.9369  139.7057  167.0561 O.2     1  UNL1       -0.2698
     11 N         138.7552  138.7964  164.8375 N.am    1  UNL1       -0.2804
     12 H         138.4302  137.9322  165.1792 H       1  UNL1        0.1552
     13 C         141.1008  142.3917  166.4659 C.ar    1  UNL1        0.0031
     14 C         140.2157  142.9254  167.5529 C.ar    1  UNL1        0.0010
     15 C         140.7536  143.0942  168.9430 C.ar    1  UNL1        0.0114
     16 C         142.1766  142.7292  169.2459 C.ar    1  UNL1        0.0577
     17 CL        142.7145  142.8980  170.6360 Cl      1  UNL1       -0.0822
     18 C         143.0618  142.1955  168.1589 C.ar    1  UNL1        0.0114
     19 C         142.5239  142.0267  166.7689 C.ar    1  UNL1        0.0010
     20 C         140.7742  143.3004  164.0540 C.ar    1  UNL1        0.1407
     21 N         141.9264  143.3956  163.0983 N.ar    1  UNL1       -0.2254
     22 C         141.7349  144.6259  162.2620 C.ar    1  UNL1        0.1189
     23 C         140.4641  145.2913  162.7009 C.ar    1  UNL1        0.0945
     24 N         139.8704  144.4722  163.8083 N.ar    1  UNL1       -0.3361
     25 H         139.0344  144.6690  164.2895 H       1  UNL1        0.1674
     26 N         138.4806  141.6382  159.5883 N.pl3   1  UNL1       -0.3339
     27 H         138.5312  142.6213  159.6034 H       1  UNL1        0.1468
     28 N         138.1633  139.4618  155.6624 N.3     1  UNL1       -0.2726
     29 C         137.1468  140.5028  156.0270 C.3     1  UNL1        0.0738
     30 C         137.2526  141.2283  157.3357 C.3     1  UNL1        0.0368
     31 C         138.3748  140.9127  158.2797 C.3     1  UNL1        0.0718
     32 C         139.3913  139.8716  157.9150 C.3     1  UNL1        0.0368
     33 C         139.2855  139.1461  156.6064 C.3     1  UNL1        0.0738
     34 C         139.0777  137.7000  153.9861 C.3     1  UNL1        0.0188
     35 C         138.0575  138.7363  154.3538 C.3     1  UNL1        0.0721
@<TRIPOS>BOND
     1    34    35    1
     2    35    28    1
     3    28    29    1
     4    29    30    1
     5    30    31    1
     6    31    26    1
     7    26     1    1
     8     1     2   ar
     9     2     3   ar
    10     3     4   ar
    11     4     5   ar
    12     5     6   ar
    13     5     7    1
    14     7     8    2
    15     8    13    1
    16    13    14   ar
    17    14    15   ar
    18    15    16   ar
    19    16    17    1
    20    16    18   ar
    21    18    19   ar
    22     8    20    1
    23    20    21   ar
    24    21    22   ar
    25    22    23   ar
    26    23    24   ar
    27     7     9    1
    28     9    10    2
    29     9    11   am
    30    31    32    1
    31    32    33    1
    32    33    28    1
    33     6     1   ar
    34    19    13   ar
    35    24    20   ar
    36    11     4    1
    37    26    27    1
    38    24    25    1
    39    11    12    1
