@<TRIPOS>MOLECULE
*****
 38 42 0 0 0
SMALL
GASTEIGER

@<TRIPOS>ATOM
      1 N         141.8720  141.6252  161.6147 N.am    1  UNL1       -0.2986
      2 C         140.9279  140.6301  161.0077 C.2     1  UNL1        0.2227
      3 O         139.4539  140.7426  161.2624 O.2     1  UNL1       -0.2751
      4 H         142.8394  141.5514  161.4475 H       1  UNL1        0.1500
      5 C         141.4576  139.5225  160.1460 C.3     1  UNL1        0.0806
      6 C         141.1684  139.5136  158.6742 C.3     1  UNL1        0.0108
      7 C         141.6982  138.4059  157.8125 C.3     1  UNL1        0.0165
      8 C         142.5172  137.3073  158.4226 C.3     1  UNL1        0.0580
      9 C         142.8065  137.3163  159.8945 C.3     1  UNL1        0.0208
     10 C         142.2767  138.4239  160.7561 C.3     1  UNL1        0.0323
     11 C         142.5659  138.4329  162.2279 C.ar    1  UNL1       -0.0220
     12 C         143.8390  139.0400  162.7384 C.ar    1  UNL1       -0.0038
     13 C         144.1283  139.0489  164.2103 C.ar    1  UNL1        0.0064
     14 C         143.1444  138.4508  165.1716 C.ar    1  UNL1        0.0345
     15 BR        143.4336  138.4597  166.6435 Br      1  UNL1       -0.0490
     16 C         141.8713  137.8437  164.6611 C.ar    1  UNL1        0.0064
     17 C         141.5820  137.8347  163.1893 C.ar    1  UNL1       -0.0038
     18 N         143.0470  136.1997  157.5609 N.3     1  UNL1       -0.2697
     19 C         143.2719  136.4313  156.0961 C.3     1  UNL1        0.1046
     20 C         143.8017  135.3236  155.2343 C.3     1  UNL1        0.1595
     21 O         144.1066  133.9845  155.8375 O.3     1  UNL1       -0.3508
     22 C         143.8817  133.7530  157.3024 C.3     1  UNL1        0.1595
     23 C         143.3520  134.8606  158.1641 C.3     1  UNL1        0.1046
     24 C         141.3422  142.7328  162.4764 C.3     1  UNL1        0.1170
     25 C         140.3853  145.5787  158.2354 C.3     1  UNL1        0.0521
     26 C         140.3283  145.4066  159.7245 C.ar    1  UNL1        0.0591
     27 C         140.8637  144.1558  160.3559 C.ar    1  UNL1        0.0124
     28 C         140.8067  143.9837  161.8449 C.ar    1  UNL1        0.0024
     29 C         140.2143  145.0624  162.7025 C.ar    1  UNL1        0.0183
     30 C         139.6789  146.3132  162.0710 C.ar    1  UNL1        0.0982
     31 N         139.7358  146.4853  160.5820 N.ar    1  UNL1       -0.2482
     32 C         141.3479  142.5896  163.9695 C.ar    1  UNL1       -0.0003
     33 C         140.0601  142.3704  164.7068 C.ar    1  UNL1       -0.0015
     34 C         140.0657  142.2272  166.1999 C.ar    1  UNL1        0.0111
     35 C         141.3592  142.3032  166.9558 C.ar    1  UNL1        0.0577
     36 CL        141.3648  142.1600  168.4489 Cl      1  UNL1       -0.0822
     37 C         142.6469  142.5225  166.2185 C.ar    1  UNL1        0.0111
     38 C         142.6413  142.6657  164.7253 C.ar    1  UNL1       -0.0015
@<TRIPOS>BOND
     1    25    26    1
     2    26    27   ar
     3    27    28   ar
     4    28    24    1
     5    24     1    1
     6     1     2   am
     7     2     3    2
     8     5     2    1
     9     5     6    1
    10     6     7    1
    11     7     8    1
    12     8    18    1
    13    18    19    1
    14    19    20    1
    15    20    21    1
    16    21    22    1
    17    22    23    1
    18     8     9    1
    19     9    10    1
    20    10    11    1
    21    11    12   ar
    22    12    13   ar
    23    13    14   ar
    24    14    15    1
    25    14    16   ar
    26    16    17   ar
    27    24    32    1
    28    32    33   ar
    29    33    34   ar
    30    34    35   ar
    31    35    36    1
    32    35    37   ar
    33    37    38   ar
    34    28    29   ar
    35    29    30   ar
    36    30    31   ar
    37    31    26   ar
    38    10     5    1
    39    17    11   ar
    40    38    32   ar
    41    23    18    1
    42     1     4    1
@<TRIPOS>MOLECULE
*****
 38 42 0 0 0
SMALL
GASTEIGER

@<TRIPOS>ATOM
      1 N         140.3124  140.6297  162.4241 N.am    1  UNL1       -0.2986
      2 C         139.6869  139.8126  161.3326 C.2     1  UNL1        0.2227
      3 O         139.5637  138.3256  161.4857 O.2     1  UNL1       -0.2751
      4 H         140.3932  141.6057  162.3236 H       1  UNL1        0.1500
      5 C         139.1846  140.4827  160.0882 C.3     1  UNL1        0.0806
      6 C         139.2032  139.7475  158.7809 C.3     1  UNL1        0.0108
      7 C         138.7009  140.4175  157.5363 C.3     1  UNL1        0.0165
      8 C         138.1799  141.8227  157.5992 C.3     1  UNL1        0.0580
      9 C         138.1613  142.5579  158.9066 C.3     1  UNL1        0.0208
     10 C         138.6636  141.8879  160.1510 C.3     1  UNL1        0.0323
     11 C         138.6450  142.6231  161.4583 C.ar    1  UNL1       -0.0220
     12 C         137.6491  142.2482  162.5155 C.ar    1  UNL1       -0.0038
     13 C         137.6305  142.9835  163.8228 C.ar    1  UNL1        0.0064
     14 C         138.6078  144.0936  164.0730 C.ar    1  UNL1        0.0345
     15 BR        138.5892  144.8288  165.3803 Br      1  UNL1       -0.0490
     16 C         139.6037  144.4684  163.0158 C.ar    1  UNL1        0.0064
     17 C         139.6223  143.7332  161.7085 C.ar    1  UNL1       -0.0038
     18 N         137.6776  142.4927  156.3547 N.3     1  UNL1       -0.2697
     19 C         136.6183  141.8326  155.5229 C.3     1  UNL1        0.1046
     20 C         136.1159  142.5026  154.2784 C.3     1  UNL1        0.1595
     21 O         136.6729  143.8328  153.8658 O.3     1  UNL1       -0.3508
     22 C         137.7323  144.4930  154.6976 C.3     1  UNL1        0.1595
     23 C         138.2346  143.8230  155.9421 C.3     1  UNL1        0.1046
     24 C         140.8147  139.9597  163.6685 C.3     1  UNL1        0.1170
     25 C         145.6146  141.8220  162.9663 C.3     1  UNL1        0.0521
     26 C         144.6883  140.8193  163.5881 C.ar    1  UNL1        0.0591
     27 C         143.2147  140.8908  163.3174 C.ar    1  UNL1        0.0124
     28 C         142.2884  139.8881  163.9392 C.ar    1  UNL1        0.0024
     29 C         142.8358  138.8139  164.8315 C.ar    1  UNL1        0.0183
     30 C         144.3094  138.7423  165.1022 C.ar    1  UNL1        0.0982
     31 N         145.2356  139.7451  164.4804 N.ar    1  UNL1       -0.2482
     32 C         139.8434  139.3612  164.6424 C.ar    1  UNL1       -0.0003
     33 C         139.4879  137.9068  164.5492 C.ar    1  UNL1       -0.0015
     34 C         138.5166  137.3083  165.5230 C.ar    1  UNL1        0.0111
     35 C         137.9008  138.1642  166.5901 C.ar    1  UNL1        0.0577
     36 CL        136.9295  137.5657  167.5639 Cl      1  UNL1       -0.0822
     37 C         138.2563  139.6184  166.6832 C.ar    1  UNL1        0.0111
     38 C         139.2276  140.2169  165.7094 C.ar    1  UNL1       -0.0015
@<TRIPOS>BOND
     1    25    26    1
     2    26    27   ar
     3    27    28   ar
     4    28    24    1
     5    24     1    1
     6     1     2   am
     7     2     3    2
     8     5     2    1
     9     5     6    1
    10     6     7    1
    11     7     8    1
    12     8    18    1
    13    18    19    1
    14    19    20    1
    15    20    21    1
    16    21    22    1
    17    22    23    1
    18     8     9    1
    19     9    10    1
    20    10    11    1
    21    11    12   ar
    22    12    13   ar
    23    13    14   ar
    24    14    15    1
    25    14    16   ar
    26    16    17   ar
    27    24    32    1
    28    32    33   ar
    29    33    34   ar
    30    34    35   ar
    31    35    36    1
    32    35    37   ar
    33    37    38   ar
    34    28    29   ar
    35    29    30   ar
    36    30    31   ar
    37    31    26   ar
    38    10     5    1
    39    17    11   ar
    40    38    32   ar
    41    23    18    1
    42     1     4    1
@<TRIPOS>MOLECULE
*****
 38 42 0 0 0
SMALL
GASTEIGER

@<TRIPOS>ATOM
      1 N         141.6734  140.6621  162.0563 N.am    1  UNL1       -0.2986
      2 C         142.7364  140.9804  163.0657 C.2     1  UNL1        0.2227
      3 O         144.1285  141.3056  162.6116 O.2     1  UNL1       -0.2751
      4 H         140.7596  140.4486  162.3543 H       1  UNL1        0.1500
      5 C         142.4072  140.9737  164.5291 C.3     1  UNL1        0.0806
      6 C         142.9182  139.8705  165.4076 C.3     1  UNL1        0.0108
      7 C         142.5890  139.8637  166.8711 C.3     1  UNL1        0.0165
      8 C         141.7488  140.9601  167.4559 C.3     1  UNL1        0.0580
      9 C         141.2377  142.0632  166.5773 C.3     1  UNL1        0.0208
     10 C         141.5669  142.0700  165.1139 C.3     1  UNL1        0.0323
     11 C         141.0558  143.1731  164.2353 C.ar    1  UNL1       -0.0220
     12 C         139.6363  143.1497  163.7511 C.ar    1  UNL1       -0.0038
     13 C         139.1253  144.2529  162.8725 C.ar    1  UNL1        0.0064
     14 C         140.0337  145.3794  162.4782 C.ar    1  UNL1        0.0345
     15 BR        139.5227  146.4826  161.5996 Br      1  UNL1       -0.0490
     16 C         141.4532  145.4029  162.9624 C.ar    1  UNL1        0.0064
     17 C         141.9643  144.2997  163.8409 C.ar    1  UNL1       -0.0038
     18 N         141.4196  140.9533  168.9193 N.3     1  UNL1       -0.2697
     19 C         142.1203  141.8981  169.8500 C.3     1  UNL1        0.1046
     20 C         141.7912  141.8913  171.3135 C.3     1  UNL1        0.1595
     21 O         140.7612  140.9398  171.8462 O.3     1  UNL1       -0.3508
     22 C         140.0605  139.9949  170.9154 C.3     1  UNL1        0.1595
     23 C         140.3897  140.0017  169.4520 C.3     1  UNL1        0.1046
     24 C         142.0026  140.6688  160.5929 C.3     1  UNL1        0.1170
     25 C         141.8999  137.7360  156.3048 C.3     1  UNL1        0.0521
     26 C         142.2728  137.9166  157.7464 C.ar    1  UNL1        0.0591
     27 C         141.9513  139.2024  158.4489 C.ar    1  UNL1        0.0124
     28 C         142.3241  139.3830  159.8905 C.ar    1  UNL1        0.0024
     29 C         143.0185  138.2779  160.6297 C.ar    1  UNL1        0.0183
     30 C         143.3400  136.9921  159.9273 C.ar    1  UNL1        0.0982
     31 N         142.9671  136.8115  158.4857 N.ar    1  UNL1       -0.2482
     32 C         142.0102  141.9614  159.8319 C.ar    1  UNL1       -0.0003
     33 C         143.2506  142.4002  159.1113 C.ar    1  UNL1       -0.0015
     34 C         143.2582  143.6927  158.3503 C.ar    1  UNL1        0.0111
     35 C         142.0255  144.5465  158.3097 C.ar    1  UNL1        0.0577
     36 CL        142.0332  145.8391  157.5487 Cl      1  UNL1       -0.0822
     37 C         140.7853  144.1078  159.0303 C.ar    1  UNL1        0.0111
     38 C         140.7776  142.8152  159.7913 C.ar    1  UNL1       -0.0015
@<TRIPOS>BOND
     1    25    26    1
     2    26    27   ar
     3    27    28   ar
     4    28    24    1
     5    24     1    1
     6     1     2   am
     7     2     3    2
     8     5     2    1
     9     5     6    1
    10     6     7    1
    11     7     8    1
    12     8    18    1
    13    18    19    1
    14    19    20    1
    15    20    21    1
    16    21    22    1
    17    22    23    1
    18     8     9    1
    19     9    10    1
    20    10    11    1
    21    11    12   ar
    22    12    13   ar
    23    13    14   ar
    24    14    15    1
    25    14    16   ar
    26    16    17   ar
    27    24    32    1
    28    32    33   ar
    29    33    34   ar
    30    34    35   ar
    31    35    36    1
    32    35    37   ar
    33    37    38   ar
    34    28    29   ar
    35    29    30   ar
    36    30    31   ar
    37    31    26   ar
    38    10     5    1
    39    17    11   ar
    40    38    32   ar
    41    23    18    1
    42     1     4    1
@<TRIPOS>MOLECULE
*****
 38 42 0 0 0
SMALL
GASTEIGER

@<TRIPOS>ATOM
      1 N         142.9509  141.4712  158.9710 N.am    1  UNL1       -0.2986
      2 C         141.9234  140.3813  159.0507 C.2     1  UNL1        0.2227
      3 O         140.6068  140.6394  159.7216 O.2     1  UNL1       -0.2751
      4 H         143.8150  141.3018  158.5307 H       1  UNL1        0.1500
      5 C         142.2123  139.0334  158.4595 C.3     1  UNL1        0.0806
      6 C         142.1083  138.8265  156.9775 C.3     1  UNL1        0.0108
      7 C         142.3973  137.4785  156.3863 C.3     1  UNL1        0.0165
      8 C         142.7903  136.3374  157.2771 C.3     1  UNL1        0.0580
      9 C         142.8943  136.5444  158.7592 C.3     1  UNL1        0.0208
     10 C         142.6053  137.8923  159.3503 C.3     1  UNL1        0.0323
     11 C         142.7093  138.0992  160.8323 C.ar    1  UNL1       -0.0220
     12 C         141.5363  137.7948  161.7163 C.ar    1  UNL1       -0.0038
     13 C         141.6404  138.0017  163.1983 C.ar    1  UNL1        0.0064
     14 C         142.9174  138.5130  163.7964 C.ar    1  UNL1        0.0345
     15 BR        143.0215  138.7199  165.2784 Br      1  UNL1       -0.0490
     16 C         144.0904  138.8174  162.9124 C.ar    1  UNL1        0.0064
     17 C         143.9864  138.6105  161.4305 C.ar    1  UNL1       -0.0038
     18 N         143.0793  134.9895  156.6859 N.3     1  UNL1       -0.2697
     19 C         142.6931  134.6945  155.2669 C.3     1  UNL1        0.1046
     20 C         142.9821  133.3466  154.6756 C.3     1  UNL1        0.1595
     21 O         143.6572  132.2936  155.5035 O.3     1  UNL1       -0.3508
     22 C         144.0434  132.5886  156.9227 C.3     1  UNL1        0.1595
     23 C         143.7544  133.9365  157.5139 C.3     1  UNL1        0.1046
     24 C         142.6620  142.8191  159.5622 C.3     1  UNL1        0.1170
     25 C         145.7806  141.8509  163.6040 C.3     1  UNL1        0.0521
     26 C         144.6889  142.6614  162.9705 C.ar    1  UNL1        0.0591
     27 C         144.2213  142.3350  161.5831 C.ar    1  UNL1        0.0124
     28 C         143.1296  143.1455  160.9496 C.ar    1  UNL1        0.0024
     29 C         142.5057  144.2824  161.7033 C.ar    1  UNL1        0.0183
     30 C         142.9733  144.6087  163.0906 C.ar    1  UNL1        0.0982
     31 N         144.0650  143.7982  163.7242 N.ar    1  UNL1       -0.2482
     32 C         141.9053  143.8407  158.7660 C.ar    1  UNL1       -0.0003
     33 C         142.6483  144.8456  157.9363 C.ar    1  UNL1       -0.0015
     34 C         141.8917  145.8672  157.1402 C.ar    1  UNL1        0.0111
     35 C         140.3921  145.8838  157.1736 C.ar    1  UNL1        0.0577
     36 CL        139.6354  146.9054  156.3775 Cl      1  UNL1       -0.0822
     37 C         139.6492  144.8790  158.0033 C.ar    1  UNL1        0.0111
     38 C         140.4058  143.8574  158.7994 C.ar    1  UNL1       -0.0015
@<TRIPOS>BOND
     1    25    26    1
     2    26    27   ar
     3    27    28   ar
     4    28    24    1
     5    24     1    1
     6     1     2   am
     7     2     3    2
     8     5     2    1
     9     5     6    1
    10     6     7    1
    11     7     8    1
    12     8    18    1
    13    18    19    1
    14    19    20    1
    15    20    21    1
    16    21    22    1
    17    22    23    1
    18     8     9    1
    19     9    10    1
    20    10    11    1
    21    11    12   ar
    22    12    13   ar
    23    13    14   ar
    24    14    15    1
    25    14    16   ar
    26    16    17   ar
    27    24    32    1
    28    32    33   ar
    29    33    34   ar
    30    34    35   ar
    31    35    36    1
    32    35    37   ar
    33    37    38   ar
    34    28    29   ar
    35    29    30   ar
    36    30    31   ar
    37    31    26   ar
    38    10     5    1
    39    17    11   ar
    40    38    32   ar
    41    23    18    1
    42     1     4    1
@<TRIPOS>MOLECULE
*****
 38 42 0 0 0
SMALL
GASTEIGER

@<TRIPOS>ATOM
      1 N         141.3737  138.3665  158.8422 N.am    1  UNL1       -0.2986
      2 C         142.2430  138.6017  160.0418 C.2     1  UNL1        0.2227
      3 O         143.7308  138.7051  159.8811 O.2     1  UNL1       -0.2751
      4 H         140.3972  138.2986  158.9477 H       1  UNL1        0.1500
      5 C         141.6246  138.7337  161.4020 C.3     1  UNL1        0.0806
      6 C         141.4848  137.5274  162.2824 C.3     1  UNL1        0.0108
      7 C         140.8663  137.6592  163.6427 C.3     1  UNL1        0.0165
      8 C         140.3877  138.9974  164.1224 C.3     1  UNL1        0.0580
      9 C         140.5276  140.2038  163.2418 C.3     1  UNL1        0.0208
     10 C         141.1460  140.0719  161.8817 C.3     1  UNL1        0.0323
     11 C         141.2858  141.2782  161.0012 C.ar    1  UNL1       -0.0220
     12 C         142.5922  142.0125  160.9371 C.ar    1  UNL1       -0.0038
     13 C         142.7320  143.2189  160.0566 C.ar    1  UNL1        0.0064
     14 C         141.5655  143.6908  159.2403 C.ar    1  UNL1        0.0345
     15 BR        141.7053  144.8972  158.3598 Br      1  UNL1       -0.0490
     16 C         140.2591  142.9565  159.3044 C.ar    1  UNL1        0.0064
     17 C         140.1193  141.7502  160.1849 C.ar    1  UNL1       -0.0038
     18 N         139.7693  139.1294  165.4825 N.3     1  UNL1       -0.2697
     19 C         140.4995  139.8590  166.5708 C.3     1  UNL1        0.1046
     20 C         139.8811  139.9910  167.9311 C.3     1  UNL1        0.1595
     21 O         138.5324  139.3932  168.2030 O.3     1  UNL1       -0.3508
     22 C         137.8022  138.6635  167.1146 C.3     1  UNL1        0.1595
     23 C         138.4207  138.5316  165.7544 C.3     1  UNL1        0.1046
     24 C         141.9921  138.2345  157.4821 C.3     1  UNL1        0.1170
     25 C         143.9461  133.4479  156.9619 C.3     1  UNL1        0.0521
     26 C         142.9804  134.5109  156.5290 C.ar    1  UNL1        0.0591
     27 C         142.9691  135.8412  157.2219 C.ar    1  UNL1        0.0124
     28 C         142.0033  136.9042  156.7891 C.ar    1  UNL1        0.0024
     29 C         141.0489  136.6369  155.6632 C.ar    1  UNL1        0.0183
     30 C         141.0602  135.3067  154.9703 C.ar    1  UNL1        0.0982
     31 N         142.0259  134.2437  155.4032 N.ar    1  UNL1       -0.2482
     32 C         142.5993  139.4329  156.8148 C.ar    1  UNL1       -0.0003
     33 C         141.8965  140.7571  156.8674 C.ar    1  UNL1       -0.0015
     34 C         142.5037  141.9554  156.2001 C.ar    1  UNL1        0.0111
     35 C         143.8138  141.8296  155.4803 C.ar    1  UNL1        0.0577
     36 CL        144.4210  143.0280  154.8131 Cl      1  UNL1       -0.0822
     37 C         144.5165  140.5055  155.4278 C.ar    1  UNL1        0.0111
     38 C         143.9093  139.3072  156.0950 C.ar    1  UNL1       -0.0015
@<TRIPOS>BOND
     1    25    26    1
     2    26    27   ar
     3    27    28   ar
     4    28    24    1
     5    24     1    1
     6     1     2   am
     7     2     3    2
     8     5     2    1
     9     5     6    1
    10     6     7    1
    11     7     8    1
    12     8    18    1
    13    18    19    1
    14    19    20    1
    15    20    21    1
    16    21    22    1
    17    22    23    1
    18     8     9    1
    19     9    10    1
    20    10    11    1
    21    11    12   ar
    22    12    13   ar
    23    13    14   ar
    24    14    15    1
    25    14    16   ar
    26    16    17   ar
    27    24    32    1
    28    32    33   ar
    29    33    34   ar
    30    34    35   ar
    31    35    36    1
    32    35    37   ar
    33    37    38   ar
    34    28    29   ar
    35    29    30   ar
    36    30    31   ar
    37    31    26   ar
    38    10     5    1
    39    17    11   ar
    40    38    32   ar
    41    23    18    1
    42     1     4    1
@<TRIPOS>MOLECULE
*****
 38 42 0 0 0
SMALL
GASTEIGER

@<TRIPOS>ATOM
      1 N         141.9608  140.2417  162.8337 N.am    1  UNL1       -0.2986
      2 C         143.0821  140.0928  161.8485 C.2     1  UNL1        0.2227
      3 O         144.3678  140.8367  162.0576 O.2     1  UNL1       -0.2751
      4 H         141.1169  139.7535  162.6964 H       1  UNL1        0.1500
      5 C         142.9178  139.2002  160.6544 C.3     1  UNL1        0.0806
      6 C         143.2823  137.7481  160.7477 C.3     1  UNL1        0.0108
      7 C         143.1180  136.8554  159.5535 C.3     1  UNL1        0.0165
      8 C         142.5891  137.4147  158.2660 C.3     1  UNL1        0.0580
      9 C         142.2246  138.8668  158.1728 C.3     1  UNL1        0.0208
     10 C         142.3890  139.7595  159.3669 C.3     1  UNL1        0.0323
     11 C         142.0245  141.2115  159.2737 C.ar    1  UNL1       -0.0220
     12 C         140.6499  141.6664  159.6656 C.ar    1  UNL1       -0.0038
     13 C         140.2854  143.1185  159.5723 C.ar    1  UNL1        0.0064
     14 C         141.2955  144.1156  159.0871 C.ar    1  UNL1        0.0345
     15 BR        140.9311  145.5677  158.9938 Br      1  UNL1       -0.0490
     16 C         142.6701  143.6607  158.6952 C.ar    1  UNL1        0.0064
     17 C         143.0346  142.2087  158.7884 C.ar    1  UNL1       -0.0038
     18 N         142.4248  136.5220  157.0719 N.3     1  UNL1       -0.2697
     19 C         141.2778  136.7345  156.1289 C.3     1  UNL1        0.1046
     20 C         141.1134  135.8418  154.9347 C.3     1  UNL1        0.1595
     21 O         142.0960  134.7366  154.6835 O.3     1  UNL1       -0.3508
     22 C         143.2431  134.5242  155.6265 C.3     1  UNL1        0.1595
     23 C         143.4074  135.4169  156.8207 C.3     1  UNL1        0.1046
     24 C         142.1251  141.1344  164.0278 C.3     1  UNL1        0.1170
     25 C         139.7126  145.4950  162.5564 C.3     1  UNL1        0.0521
     26 C         140.9192  144.8049  163.1202 C.ar    1  UNL1        0.0591
     27 C         140.9189  143.3148  163.2921 C.ar    1  UNL1        0.0124
     28 C         142.1254  142.6246  163.8559 C.ar    1  UNL1        0.0024
     29 C         143.3323  143.4245  164.2478 C.ar    1  UNL1        0.0183
     30 C         143.3326  144.9146  164.0759 C.ar    1  UNL1        0.0982
     31 N         142.1260  145.6048  163.5121 N.ar    1  UNL1       -0.2482
     32 C         142.2891  140.5370  165.3939 C.ar    1  UNL1       -0.0003
     33 C         141.6005  141.1594  166.5723 C.ar    1  UNL1       -0.0015
     34 C         141.7645  140.5620  167.9384 C.ar    1  UNL1        0.0111
     35 C         142.6171  139.3422  168.1261 C.ar    1  UNL1        0.0577
     36 CL        142.7811  138.7448  169.4922 Cl      1  UNL1       -0.0822
     37 C         143.3057  138.7199  166.9478 C.ar    1  UNL1        0.0111
     38 C         143.1417  139.3173  165.5817 C.ar    1  UNL1       -0.0015
@<TRIPOS>BOND
     1    25    26    1
     2    26    27   ar
     3    27    28   ar
     4    28    24    1
     5    24     1    1
     6     1     2   am
     7     2     3    2
     8     5     2    1
     9     5     6    1
    10     6     7    1
    11     7     8    1
    12     8    18    1
    13    18    19    1
    14    19    20    1
    15    20    21    1
    16    21    22    1
    17    22    23    1
    18     8     9    1
    19     9    10    1
    20    10    11    1
    21    11    12   ar
    22    12    13   ar
    23    13    14   ar
    24    14    15    1
    25    14    16   ar
    26    16    17   ar
    27    24    32    1
    28    32    33   ar
    29    33    34   ar
    30    34    35   ar
    31    35    36    1
    32    35    37   ar
    33    37    38   ar
    34    28    29   ar
    35    29    30   ar
    36    30    31   ar
    37    31    26   ar
    38    10     5    1
    39    17    11   ar
    40    38    32   ar
    41    23    18    1
    42     1     4    1
@<TRIPOS>MOLECULE
*****
 38 42 0 0 0
SMALL
GASTEIGER

@<TRIPOS>ATOM
      1 N         141.6783  138.6473  158.7802 N.am    1  UNL1       -0.2986
      2 C         142.4889  138.8425  160.0272 C.2     1  UNL1        0.2227
      3 O         143.9808  138.9712  159.9395 O.2     1  UNL1       -0.2751
      4 H         140.6991  138.5629  158.8378 H       1  UNL1        0.1500
      5 C         141.8076  138.9089  161.3619 C.3     1  UNL1        0.0806
      6 C         141.7165  137.6815  162.2193 C.3     1  UNL1        0.0108
      7 C         141.0352  137.7478  163.5541 C.3     1  UNL1        0.0165
      8 C         140.4450  139.0416  164.0313 C.3     1  UNL1        0.0580
      9 C         140.5361  140.2690  163.1739 C.3     1  UNL1        0.0208
     10 C         141.2174  140.2026  161.8392 C.3     1  UNL1        0.0323
     11 C         141.3085  141.4300  160.9818 C.ar    1  UNL1       -0.0220
     12 C         142.5610  142.2555  160.9844 C.ar    1  UNL1       -0.0038
     13 C         142.6520  143.4830  160.1270 C.ar    1  UNL1        0.0064
     14 C         141.4907  143.8849  159.2670 C.ar    1  UNL1        0.0345
     15 BR        141.5818  145.1123  158.4095 Br      1  UNL1       -0.0490
     16 C         140.2383  143.0594  159.2643 C.ar    1  UNL1        0.0064
     17 C         140.1471  141.8320  160.1217 C.ar    1  UNL1       -0.0038
     18 N         139.7637  139.1080  165.3660 N.3     1  UNL1       -0.2697
     19 C         140.3940  139.8719  166.4925 C.3     1  UNL1        0.1046
     20 C         139.7127  139.9384  167.8273 C.3     1  UNL1        0.1595
     21 O         138.4011  139.2408  168.0354 O.3     1  UNL1       -0.3508
     22 C         137.7709  138.4769  166.9088 C.3     1  UNL1        0.1595
     23 C         138.4522  138.4105  165.5741 C.3     1  UNL1        0.1046
     24 C         142.3596  138.5809  157.4456 C.3     1  UNL1        0.1170
     25 C         146.3382  141.0963  155.2447 C.3     1  UNL1        0.0521
     26 C         144.9194  141.0828  155.7316 C.ar    1  UNL1        0.0591
     27 C         144.3489  139.8387  156.3451 C.ar    1  UNL1        0.0124
     28 C         142.9301  139.8252  156.8320 C.ar    1  UNL1        0.0024
     29 C         142.0820  141.0558  156.7053 C.ar    1  UNL1        0.0183
     30 C         142.6526  142.3000  156.0918 C.ar    1  UNL1        0.0982
     31 N         144.0713  142.3135  155.6049 N.ar    1  UNL1       -0.2482
     32 C         142.4704  137.2704  156.7244 C.ar    1  UNL1       -0.0003
     33 C         142.0073  137.1554  155.3023 C.ar    1  UNL1       -0.0015
     34 C         142.1181  135.8448  154.5811 C.ar    1  UNL1        0.0111
     35 C         142.6919  134.6492  155.2821 C.ar    1  UNL1        0.0577
     36 CL        142.8027  133.3386  154.5609 Cl      1  UNL1       -0.0822
     37 C         143.1549  134.7642  156.7042 C.ar    1  UNL1        0.0111
     38 C         143.0441  136.0748  157.4253 C.ar    1  UNL1       -0.0015
@<TRIPOS>BOND
     1    25    26    1
     2    26    27   ar
     3    27    28   ar
     4    28    24    1
     5    24     1    1
     6     1     2   am
     7     2     3    2
     8     5     2    1
     9     5     6    1
    10     6     7    1
    11     7     8    1
    12     8    18    1
    13    18    19    1
    14    19    20    1
    15    20    21    1
    16    21    22    1
    17    22    23    1
    18     8     9    1
    19     9    10    1
    20    10    11    1
    21    11    12   ar
    22    12    13   ar
    23    13    14   ar
    24    14    15    1
    25    14    16   ar
    26    16    17   ar
    27    24    32    1
    28    32    33   ar
    29    33    34   ar
    30    34    35   ar
    31    35    36    1
    32    35    37   ar
    33    37    38   ar
    34    28    29   ar
    35    29    30   ar
    36    30    31   ar
    37    31    26   ar
    38    10     5    1
    39    17    11   ar
    40    38    32   ar
    41    23    18    1
    42     1     4    1
@<TRIPOS>MOLECULE
*****
 38 42 0 0 0
SMALL
GASTEIGER

@<TRIPOS>ATOM
      1 N         140.7008  140.8385  159.1098 N.am    1  UNL1       -0.2986
      2 C         142.0852  140.4359  158.6959 C.2     1  UNL1        0.2227
      3 O         143.2195  141.4089  158.8253 O.2     1  UNL1       -0.2751
      4 H         139.9563  140.1999  159.0248 H       1  UNL1        0.1500
      5 C         142.3354  139.0604  158.1525 C.3     1  UNL1        0.0806
      6 C         142.2594  138.8123  156.6751 C.3     1  UNL1        0.0108
      7 C         142.5096  137.4368  156.1317 C.3     1  UNL1        0.0165
      8 C         142.8358  136.3093  157.0657 C.3     1  UNL1        0.0580
      9 C         142.9118  136.5573  158.5431 C.3     1  UNL1        0.0208
     10 C         142.6616  137.9329  159.0865 C.3     1  UNL1        0.0323
     11 C         142.7376  138.1809  160.5639 C.ar    1  UNL1       -0.0220
     12 C         144.0084  138.6938  161.1739 C.ar    1  UNL1       -0.0038
     13 C         144.0843  138.9418  162.6513 C.ar    1  UNL1        0.0064
     14 C         142.8896  138.6769  163.5187 C.ar    1  UNL1        0.0345
     15 BR        142.9655  138.9250  164.9961 Br      1  UNL1       -0.0490
     16 C         141.6188  138.1640  162.9087 C.ar    1  UNL1        0.0064
     17 C         141.5428  137.9160  161.4313 C.ar    1  UNL1       -0.0038
     18 N         143.0860  134.9337  156.5223 N.3     1  UNL1       -0.2697
     19 C         142.6979  134.6025  155.1118 C.3     1  UNL1        0.1046
     20 C         142.9481  133.2270  154.5683 C.3     1  UNL1        0.1595
     21 O         143.5863  132.1826  155.4355 O.3     1  UNL1       -0.3508
     22 C         143.9744  132.5139  156.8461 C.3     1  UNL1        0.1595
     23 C         143.7242  133.8894  157.3895 C.3     1  UNL1        0.1046
     24 C         140.4506  142.2140  159.6531 C.3     1  UNL1        0.1170
     25 C         137.8602  144.1031  163.7423 C.3     1  UNL1        0.0521
     26 C         139.0416  143.3709  163.1782 C.ar    1  UNL1        0.0591
     27 C         139.1554  143.1586  161.6978 C.ar    1  UNL1        0.0124
     28 C         140.3368  142.4263  161.1337 C.ar    1  UNL1        0.0024
     29 C         141.4044  141.9064  162.0502 C.ar    1  UNL1        0.0183
     30 C         141.2906  142.1188  163.5307 C.ar    1  UNL1        0.0982
     31 N         140.1092  142.8510  164.0947 N.ar    1  UNL1       -0.2482
     32 C         140.3142  143.3772  158.7160 C.ar    1  UNL1       -0.0003
     33 C         139.4641  143.2540  157.4862 C.ar    1  UNL1       -0.0015
     34 C         139.3277  144.4172  156.5491 C.ar    1  UNL1        0.0111
     35 C         140.0414  145.7038  156.8417 C.ar    1  UNL1        0.0577
     36 CL        139.9050  146.8670  155.9046 Cl      1  UNL1       -0.0822
     37 C         140.8914  145.8270  158.0714 C.ar    1  UNL1        0.0111
     38 C         141.0278  144.6637  159.0086 C.ar    1  UNL1       -0.0015
@<TRIPOS>BOND
     1    25    26    1
     2    26    27   ar
     3    27    28   ar
     4    28    24    1
     5    24     1    1
     6     1     2   am
     7     2     3    2
     8     5     2    1
     9     5     6    1
    10     6     7    1
    11     7     8    1
    12     8    18    1
    13    18    19    1
    14    19    20    1
    15    20    21    1
    16    21    22    1
    17    22    23    1
    18     8     9    1
    19     9    10    1
    20    10    11    1
    21    11    12   ar
    22    12    13   ar
    23    13    14   ar
    24    14    15    1
    25    14    16   ar
    26    16    17   ar
    27    24    32    1
    28    32    33   ar
    29    33    34   ar
    30    34    35   ar
    31    35    36    1
    32    35    37   ar
    33    37    38   ar
    34    28    29   ar
    35    29    30   ar
    36    30    31   ar
    37    31    26   ar
    38    10     5    1
    39    17    11   ar
    40    38    32   ar
    41    23    18    1
    42     1     4    1
@<TRIPOS>MOLECULE
*****
 38 42 0 0 0
SMALL
GASTEIGER

@<TRIPOS>ATOM
      1 N         139.8969  140.5903  162.6978 N.am    1  UNL1       -0.2986
      2 C         140.0790  139.9918  161.3344 C.2     1  UNL1        0.2227
      3 O         140.8091  138.6909  161.1778 O.2     1  UNL1       -0.2751
      4 H         139.4177  141.4441  162.8006 H       1  UNL1        0.1500
      5 C         139.5311  140.6944  160.1277 C.3     1  UNL1        0.0806
      6 C         138.5671  139.9875  159.2217 C.3     1  UNL1        0.0108
      7 C         138.0191  140.6901  158.0149 C.3     1  UNL1        0.0165
      8 C         138.4353  142.0995  157.7142 C.3     1  UNL1        0.0580
      9 C         139.3994  142.8063  158.6203 C.3     1  UNL1        0.0208
     10 C         139.9473  142.1038  159.8270 C.3     1  UNL1        0.0323
     11 C         140.9113  142.8106  160.7330 C.ar    1  UNL1       -0.0220
     12 C         140.4031  143.5731  161.9206 C.ar    1  UNL1       -0.0038
     13 C         141.3673  144.2800  162.8266 C.ar    1  UNL1        0.0064
     14 C         142.8395  144.2244  162.5451 C.ar    1  UNL1        0.0345
     15 BR        143.8037  144.9312  163.4511 Br      1  UNL1       -0.0490
     16 C         143.3477  143.4619  161.3575 C.ar    1  UNL1        0.0064
     17 C         142.3837  142.7550  160.4515 C.ar    1  UNL1       -0.0038
     18 N         137.8874  142.8020  156.5075 N.3     1  UNL1       -0.2697
     19 C         138.5191  144.0760  156.0301 C.3     1  UNL1        0.1046
     20 C         137.9713  144.7786  154.8233 C.3     1  UNL1        0.1595
     21 O         136.7917  144.2072  154.0940 O.3     1  UNL1       -0.3508
     22 C         136.1599  142.9331  154.5714 C.3     1  UNL1        0.1595
     23 C         136.7078  142.2306  155.7781 C.3     1  UNL1        0.1046
     24 C         140.4447  139.8877  163.9045 C.3     1  UNL1        0.1170
     25 C         144.5199  137.9083  166.4491 C.3     1  UNL1        0.0521
     26 C         143.9654  138.8030  165.3804 C.ar    1  UNL1        0.0591
     27 C         142.4824  138.8980  165.1768 C.ar    1  UNL1        0.0124
     28 C         141.9279  139.7927  164.1081 C.ar    1  UNL1        0.0024
     29 C         142.8564  140.5923  163.2430 C.ar    1  UNL1        0.0183
     30 C         144.3395  140.4972  163.4467 C.ar    1  UNL1        0.0982
     31 N         144.8940  139.6026  164.5154 N.ar    1  UNL1       -0.2482
     32 C         139.5096  139.2802  164.9077 C.ar    1  UNL1       -0.0003
     33 C         139.0582  137.8587  164.7474 C.ar    1  UNL1       -0.0015
     34 C         138.1230  137.2511  165.7506 C.ar    1  UNL1        0.0111
     35 C         137.6392  138.0651  166.9140 C.ar    1  UNL1        0.0577
     36 CL        136.7041  137.4576  167.9172 Cl      1  UNL1       -0.0822
     37 C         138.0906  139.4865  167.0742 C.ar    1  UNL1        0.0111
     38 C         139.0258  140.0941  166.0711 C.ar    1  UNL1       -0.0015
@<TRIPOS>BOND
     1    25    26    1
     2    26    27   ar
     3    27    28   ar
     4    28    24    1
     5    24     1    1
     6     1     2   am
     7     2     3    2
     8     5     2    1
     9     5     6    1
    10     6     7    1
    11     7     8    1
    12     8    18    1
    13    18    19    1
    14    19    20    1
    15    20    21    1
    16    21    22    1
    17    22    23    1
    18     8     9    1
    19     9    10    1
    20    10    11    1
    21    11    12   ar
    22    12    13   ar
    23    13    14   ar
    24    14    15    1
    25    14    16   ar
    26    16    17   ar
    27    24    32    1
    28    32    33   ar
    29    33    34   ar
    30    34    35   ar
    31    35    36    1
    32    35    37   ar
    33    37    38   ar
    34    28    29   ar
    35    29    30   ar
    36    30    31   ar
    37    31    26   ar
    38    10     5    1
    39    17    11   ar
    40    38    32   ar
    41    23    18    1
    42     1     4    1
