@<TRIPOS>MOLECULE
*****
 32 35 0 0 0
SMALL
GASTEIGER

@<TRIPOS>ATOM
      1 N         140.2975  141.6230  163.8966 N.am    1  UNL1       -0.2809
      2 C         139.6958  142.9331  163.4823 C.2     1  UNL1        0.2495
      3 O         138.5630  143.5209  164.2705 O.2     1  UNL1       -0.2698
      4 H         141.0410  141.2372  163.3793 H       1  UNL1        0.1552
      5 C         138.1673  139.5355  163.5729 C.3     1  UNL1        0.0323
      6 C         138.7012  139.8570  164.9373 C.ar    1  UNL1       -0.0087
      7 C         138.1700  139.1347  166.1399 C.ar    1  UNL1       -0.0030
      8 C         138.7039  139.4562  167.5043 C.ar    1  UNL1        0.0024
      9 C         139.7689  140.4999  167.6662 C.ar    1  UNL1        0.0312
     10 C         140.3001  141.2222  166.4636 C.ar    1  UNL1       -0.0058
     11 C         141.3652  142.2660  166.6255 C.3     1  UNL1        0.0324
     12 C         139.7662  140.9007  165.0992 C.ar    1  UNL1        0.0426
     13 C         140.3028  140.8214  169.0306 C.ar    1  UNL1        0.1403
     14 N         141.3718  140.0632  169.7602 N.ar    1  UNL1       -0.2254
     15 C         141.5911  140.7307  171.0855 C.ar    1  UNL1        0.1189
     16 C         140.6576  141.9014  171.1750 C.ar    1  UNL1        0.0945
     17 N         139.8614  141.9575  169.9049 N.ar    1  UNL1       -0.3361
     18 H         139.1704  142.6230  169.6840 H       1  UNL1        0.1674
     19 C         140.2270  143.6554  162.2798 C.ar    1  UNL1        0.0539
     20 C         139.7259  145.0299  161.9485 C.ar    1  UNL1        0.0076
     21 C         140.2572  145.7522  160.7459 C.ar    1  UNL1        0.0371
     22 C         141.2894  145.1001  159.8747 C.ar    1  UNL1        0.1391
     23 C         141.7905  143.7256  160.2060 C.ar    1  UNL1        0.0371
     24 C         141.2594  143.0033  161.4085 C.ar    1  UNL1        0.0076
     25 O         141.8206  145.8224  158.6722 O.3     1  UNL1       -0.4690
     26 C         141.7097  145.1983  157.3127 C.3     1  UNL1        0.2508
     27 C         140.4146  145.2678  156.5590 C.ar    1  UNL1        0.1026
     28 C         139.9224  146.5836  156.0335 C.ar    1  UNL1        0.0185
     29 C         138.6274  146.6532  155.2798 C.ar    1  UNL1        0.0029
     30 C         137.8246  145.4068  155.0516 C.ar    1  UNL1        0.0207
     31 C         138.3168  144.0909  155.5772 C.ar    1  UNL1        0.0986
     32 N         139.6118  144.0214  156.3308 N.ar    1  UNL1       -0.2445
@<TRIPOS>BOND
     1     5     6    1
     2     6     7   ar
     3     7     8   ar
     4     8     9   ar
     5     9    13    1
     6    13    14   ar
     7    14    15   ar
     8    15    16   ar
     9    16    17   ar
    10     9    10   ar
    11    10    11    1
    12    10    12   ar
    13    12     1    1
    14     1     2   am
    15     2     3    2
    16     2    19    1
    17    19    20   ar
    18    20    21   ar
    19    21    22   ar
    20    22    25    1
    21    25    26    1
    22    26    27    1
    23    27    28   ar
    24    28    29   ar
    25    29    30   ar
    26    30    31   ar
    27    31    32   ar
    28    22    23   ar
    29    23    24   ar
    30    12     6   ar
    31    24    19   ar
    32    17    13   ar
    33    32    27   ar
    34    17    18    1
    35     1     4    1
@<TRIPOS>MOLECULE
*****
 32 35 0 0 0
SMALL
GASTEIGER

@<TRIPOS>ATOM
      1 N         139.9289  141.7439  164.0460 N.am    1  UNL1       -0.2809
      2 C         139.0747  142.8855  163.5801 C.2     1  UNL1        0.2495
      3 O         137.8376  143.2566  164.3429 O.2     1  UNL1       -0.2698
      4 H         140.7409  141.5004  163.5454 H       1  UNL1        0.1552
      5 C         138.0320  139.4294  163.8346 C.3     1  UNL1        0.0323
      6 C         138.5975  139.8161  165.1690 C.ar    1  UNL1       -0.0087
      7 C         138.2146  139.0456  166.3976 C.ar    1  UNL1       -0.0030
      8 C         138.7801  139.4324  167.7320 C.ar    1  UNL1        0.0024
      9 C         139.7286  140.5896  167.8378 C.ar    1  UNL1        0.0312
     10 C         140.1115  141.3601  166.6091 C.ar    1  UNL1       -0.0058
     11 C         141.0600  142.5174  166.7148 C.3     1  UNL1        0.0324
     12 C         139.5460  140.9733  165.2747 C.ar    1  UNL1        0.0426
     13 C         140.2941  140.9763  169.1722 C.ar    1  UNL1        0.1403
     14 N         139.5987  141.7916  170.2217 N.ar    1  UNL1       -0.2254
     15 C         140.5291  141.9348  171.3895 C.ar    1  UNL1        0.1189
     16 C         141.7997  141.2080  171.0617 C.ar    1  UNL1        0.0945
     17 N         141.6544  140.6157  169.6913 N.ar    1  UNL1       -0.3361
     18 H         142.3328  140.0836  169.2160 H       1  UNL1        0.1674
     19 C         139.4576  143.6561  162.3515 C.ar    1  UNL1        0.0539
     20 C         139.6671  145.1392  162.4313 C.ar    1  UNL1        0.0076
     21 C         140.0500  145.9098  161.2025 C.ar    1  UNL1        0.0371
     22 C         140.2235  145.1972  159.8941 C.ar    1  UNL1        0.1391
     23 C         140.0140  143.7140  159.8143 C.ar    1  UNL1        0.0371
     24 C         139.6311  142.9435  161.0429 C.ar    1  UNL1        0.0076
     25 O         140.6064  145.9677  158.6655 O.3     1  UNL1       -0.4690
     26 C         140.1078  145.5303  157.3201 C.3     1  UNL1        0.2508
     27 C         139.9698  146.5298  156.2101 C.ar    1  UNL1        0.1026
     28 C         139.0674  147.7163  156.3771 C.ar    1  UNL1        0.0185
     29 C         138.9293  148.7158  155.2672 C.ar    1  UNL1        0.0029
     30 C         139.6937  148.5287  153.9902 C.ar    1  UNL1        0.0207
     31 C         140.5961  147.3422  153.8232 C.ar    1  UNL1        0.0986
     32 N         140.7341  146.3428  154.9331 N.ar    1  UNL1       -0.2445
@<TRIPOS>BOND
     1     5     6    1
     2     6     7   ar
     3     7     8   ar
     4     8     9   ar
     5     9    13    1
     6    13    14   ar
     7    14    15   ar
     8    15    16   ar
     9    16    17   ar
    10     9    10   ar
    11    10    11    1
    12    10    12   ar
    13    12     1    1
    14     1     2   am
    15     2     3    2
    16     2    19    1
    17    19    20   ar
    18    20    21   ar
    19    21    22   ar
    20    22    25    1
    21    25    26    1
    22    26    27    1
    23    27    28   ar
    24    28    29   ar
    25    29    30   ar
    26    30    31   ar
    27    31    32   ar
    28    22    23   ar
    29    23    24   ar
    30    12     6   ar
    31    24    19   ar
    32    17    13   ar
    33    32    27   ar
    34    17    18    1
    35     1     4    1
@<TRIPOS>MOLECULE
*****
 32 35 0 0 0
SMALL
GASTEIGER

@<TRIPOS>ATOM
      1 N         139.6485  142.3312  163.9527 N.am    1  UNL1       -0.2809
      2 C         140.7568  142.0617  162.9784 C.2     1  UNL1        0.2495
      3 O         141.5812  140.8151  163.1063 O.2     1  UNL1       -0.2698
      4 H         139.1074  143.1494  163.8688 H       1  UNL1        0.1552
      5 C         137.7890  140.0266  163.4723 C.3     1  UNL1        0.0323
      6 C         138.4350  140.2018  164.8146 C.ar    1  UNL1       -0.0087
      7 C         138.1513  139.2247  165.9168 C.ar    1  UNL1       -0.0030
      8 C         138.7973  139.4000  167.2592 C.ar    1  UNL1        0.0024
      9 C         139.7270  140.5522  167.4994 C.ar    1  UNL1        0.0312
     10 C         140.0108  141.5293  166.3973 C.ar    1  UNL1       -0.0058
     11 C         140.9406  142.6817  166.6374 C.3     1  UNL1        0.0324
     12 C         139.3647  141.3541  165.0549 C.ar    1  UNL1        0.0426
     13 C         140.3730  140.7275  168.8418 C.ar    1  UNL1        0.1403
     14 N         139.8389  141.5501  169.9767 N.ar    1  UNL1       -0.2254
     15 C         140.8024  141.4419  171.1213 C.ar    1  UNL1        0.1189
     16 C         141.9319  140.5523  170.6938 C.ar    1  UNL1        0.0945
     17 N         141.6666  140.1108  169.2850 N.ar    1  UNL1       -0.3361
     18 H         142.2406  139.5200  168.7459 H       1  UNL1        0.1674
     19 C         141.0406  143.0388  161.8763 C.ar    1  UNL1        0.0539
     20 C         142.0487  142.7031  160.8175 C.ar    1  UNL1        0.0076
     21 C         142.3325  143.6803  159.7154 C.ar    1  UNL1        0.0371
     22 C         141.6082  144.9930  159.6720 C.ar    1  UNL1        0.1391
     23 C         140.6000  145.3287  160.7307 C.ar    1  UNL1        0.0371
     24 C         140.3162  144.3517  161.8328 C.ar    1  UNL1        0.0076
     25 O         141.8920  145.9701  158.5698 O.3     1  UNL1       -0.4690
     26 C         141.7956  145.5342  157.1378 C.3     1  UNL1        0.2508
     27 C         140.4512  145.3616  156.4952 C.ar    1  UNL1        0.1026
     28 C         139.7593  144.0319  156.5491 C.ar    1  UNL1        0.0185
     29 C         138.4150  143.8593  155.9066 C.ar    1  UNL1        0.0029
     30 C         137.7626  145.0165  155.2100 C.ar    1  UNL1        0.0207
     31 C         138.4545  146.3463  155.1561 C.ar    1  UNL1        0.0986
     32 N         139.7988  146.5189  155.7987 N.ar    1  UNL1       -0.2445
@<TRIPOS>BOND
     1     5     6    1
     2     6     7   ar
     3     7     8   ar
     4     8     9   ar
     5     9    13    1
     6    13    14   ar
     7    14    15   ar
     8    15    16   ar
     9    16    17   ar
    10     9    10   ar
    11    10    11    1
    12    10    12   ar
    13    12     1    1
    14     1     2   am
    15     2     3    2
    16     2    19    1
    17    19    20   ar
    18    20    21   ar
    19    21    22   ar
    20    22    25    1
    21    25    26    1
    22    26    27    1
    23    27    28   ar
    24    28    29   ar
    25    29    30   ar
    26    30    31   ar
    27    31    32   ar
    28    22    23   ar
    29    23    24   ar
    30    12     6   ar
    31    24    19   ar
    32    17    13   ar
    33    32    27   ar
    34    17    18    1
    35     1     4    1
@<TRIPOS>MOLECULE
*****
 32 35 0 0 0
SMALL
GASTEIGER

@<TRIPOS>ATOM
      1 N         141.3498  139.3877  163.8466 N.am    1  UNL1       -0.2809
      2 C         141.1238  140.3624  162.7290 C.2     1  UNL1        0.2495
      3 O         140.0550  141.4079  162.8502 O.2     1  UNL1       -0.2698
      4 H         142.0512  138.7015  163.7671 H       1  UNL1        0.1552
      5 C         138.8210  137.7845  164.0341 C.3     1  UNL1        0.0323
      6 C         139.2425  138.6569  165.1791 C.ar    1  UNL1       -0.0087
      7 C         138.3997  138.7278  166.4179 C.ar    1  UNL1       -0.0030
      8 C         138.8212  139.6003  167.5629 C.ar    1  UNL1        0.0024
      9 C         140.0856  140.4018  167.4692 C.ar    1  UNL1        0.0312
     10 C         140.9284  140.3310  166.2305 C.ar    1  UNL1       -0.0058
     11 C         142.1928  141.1326  166.1367 C.3     1  UNL1        0.0324
     12 C         140.5069  139.4585  165.0854 C.ar    1  UNL1        0.0426
     13 C         140.5071  141.2743  168.6143 C.ar    1  UNL1        0.1403
     14 N         141.0913  140.8033  169.9131 N.ar    1  UNL1       -0.2254
     15 C         141.3637  142.0088  170.7631 C.ar    1  UNL1        0.1189
     16 C         140.9478  143.2249  169.9896 C.ar    1  UNL1        0.0945
     17 N         140.4185  142.7709  168.6616 N.ar    1  UNL1       -0.3361
     18 H         140.0734  143.3530  167.9465 H       1  UNL1        0.1674
     19 C         141.9667  140.2916  161.4903 C.ar    1  UNL1        0.0539
     20 C         141.8743  141.3753  160.4573 C.ar    1  UNL1        0.0076
     21 C         142.7172  141.3045  159.2185 C.ar    1  UNL1        0.0371
     22 C         143.6524  140.1499  159.0127 C.ar    1  UNL1        0.1391
     23 C         143.7448  139.0662  160.0456 C.ar    1  UNL1        0.0371
     24 C         142.9019  139.1370  161.2844 C.ar    1  UNL1        0.0076
     25 O         144.4952  140.0791  157.7739 O.3     1  UNL1       -0.4690
     26 C         143.8798  139.6631  156.4708 C.3     1  UNL1        0.2508
     27 C         143.4518  138.2404  156.2638 C.ar    1  UNL1        0.1026
     28 C         142.0548  137.8193  156.6119 C.ar    1  UNL1        0.0185
     29 C         141.6267  136.3967  156.4050 C.ar    1  UNL1        0.0029
     30 C         142.5956  135.3952  155.8499 C.ar    1  UNL1        0.0207
     31 C         143.9926  135.8163  155.5018 C.ar    1  UNL1        0.0986
     32 N         144.4207  137.2389  155.7088 N.ar    1  UNL1       -0.2445
@<TRIPOS>BOND
     1     5     6    1
     2     6     7   ar
     3     7     8   ar
     4     8     9   ar
     5     9    13    1
     6    13    14   ar
     7    14    15   ar
     8    15    16   ar
     9    16    17   ar
    10     9    10   ar
    11    10    11    1
    12    10    12   ar
    13    12     1    1
    14     1     2   am
    15     2     3    2
    16     2    19    1
    17    19    20   ar
    18    20    21   ar
    19    21    22   ar
    20    22    25    1
    21    25    26    1
    22    26    27    1
    23    27    28   ar
    24    28    29   ar
    25    29    30   ar
    26    30    31   ar
    27    31    32   ar
    28    22    23   ar
    29    23    24   ar
    30    12     6   ar
    31    24    19   ar
    32    17    13   ar
    33    32    27   ar
    34    17    18    1
    35     1     4    1
@<TRIPOS>MOLECULE
*****
 32 35 0 0 0
SMALL
GASTEIGER

@<TRIPOS>ATOM
      1 N         143.0769  140.1884  162.8649 N.am    1  UNL1       -0.2809
      2 C         141.8583  140.3624  162.0077 C.2     1  UNL1        0.2495
      3 O         140.7603  141.2867  162.4438 O.2     1  UNL1       -0.2698
      4 H         143.7975  139.5817  162.5787 H       1  UNL1        0.1552
      5 C         144.4090  142.8759  162.9212 C.3     1  UNL1        0.0323
      6 C         143.8635  142.2825  164.1863 C.ar    1  UNL1       -0.0087
      7 C         143.9841  143.0328  165.4795 C.ar    1  UNL1       -0.0030
      8 C         143.4387  142.4394  166.7446 C.ar    1  UNL1        0.0024
      9 C         142.7727  141.0957  166.7164 C.ar    1  UNL1        0.0312
     10 C         142.6521  140.3454  165.4232 C.ar    1  UNL1       -0.0058
     11 C         141.9860  139.0016  165.3950 C.3     1  UNL1        0.0324
     12 C         143.1975  140.9388  164.1581 C.ar    1  UNL1        0.0426
     13 C         142.2272  140.5023  167.9815 C.ar    1  UNL1        0.1403
     14 N         140.8686  140.7605  168.5623 N.ar    1  UNL1       -0.2254
     15 C         140.7463  139.9643  169.8276 C.ar    1  UNL1        0.1189
     16 C         142.0295  139.2140  170.0289 C.ar    1  UNL1        0.0945
     17 N         142.9447  139.5465  168.8879 N.ar    1  UNL1       -0.3361
     18 H         143.8563  139.1985  168.7570 H       1  UNL1        0.1674
     19 C         141.7376  139.6121  160.7145 C.ar    1  UNL1        0.0539
     20 C         140.5195  139.7869  159.8568 C.ar    1  UNL1        0.0076
     21 C         140.3989  139.0365  158.5635 C.ar    1  UNL1        0.0371
     22 C         141.4963  138.1113  158.1281 C.ar    1  UNL1        0.1391
     23 C         142.7144  137.9365  158.9858 C.ar    1  UNL1        0.0371
     24 C         142.8350  138.6868  160.2790 C.ar    1  UNL1        0.0076
     25 O         141.3756  137.3610  156.8349 O.3     1  UNL1       -0.4690
     26 C         142.5576  136.6188  156.2853 C.3     1  UNL1        0.2508
     27 C         142.5890  135.1197  156.3303 C.ar    1  UNL1        0.1026
     28 C         141.6677  134.3237  155.4542 C.ar    1  UNL1        0.0185
     29 C         141.6991  132.8247  155.4992 C.ar    1  UNL1        0.0029
     30 C         142.6517  132.1218  156.4203 C.ar    1  UNL1        0.0207
     31 C         143.5729  132.9179  157.2964 C.ar    1  UNL1        0.0986
     32 N         143.5416  134.4168  157.2514 N.ar    1  UNL1       -0.2445
@<TRIPOS>BOND
     1     5     6    1
     2     6     7   ar
     3     7     8   ar
     4     8     9   ar
     5     9    13    1
     6    13    14   ar
     7    14    15   ar
     8    15    16   ar
     9    16    17   ar
    10     9    10   ar
    11    10    11    1
    12    10    12   ar
    13    12     1    1
    14     1     2   am
    15     2     3    2
    16     2    19    1
    17    19    20   ar
    18    20    21   ar
    19    21    22   ar
    20    22    25    1
    21    25    26    1
    22    26    27    1
    23    27    28   ar
    24    28    29   ar
    25    29    30   ar
    26    30    31   ar
    27    31    32   ar
    28    22    23   ar
    29    23    24   ar
    30    12     6   ar
    31    24    19   ar
    32    17    13   ar
    33    32    27   ar
    34    17    18    1
    35     1     4    1
@<TRIPOS>MOLECULE
*****
 32 35 0 0 0
SMALL
GASTEIGER

@<TRIPOS>ATOM
      1 N         142.5830  141.7551  163.8245 N.am    1  UNL1       -0.2809
      2 C         141.2796  141.7666  163.0821 C.2     1  UNL1        0.2495
      3 O         140.2320  140.7381  163.3901 O.2     1  UNL1       -0.2698
      4 H         143.2706  142.4301  163.6224 H       1  UNL1        0.1552
      5 C         144.0838  139.2535  163.1249 C.3     1  UNL1        0.0323
      6 C         143.5890  139.4645  164.5251 C.ar    1  UNL1       -0.0087
      7 C         143.8447  138.4247  165.5755 C.ar    1  UNL1       -0.0030
      8 C         143.3499  138.6356  166.9758 C.ar    1  UNL1        0.0024
      9 C         142.5996  139.8864  167.3256 C.ar    1  UNL1        0.0312
     10 C         142.3439  140.9262  166.2752 C.ar    1  UNL1       -0.0058
     11 C         141.5935  142.1771  166.6250 C.3     1  UNL1        0.0324
     12 C         142.8387  140.7152  164.8749 C.ar    1  UNL1        0.0426
     13 C         142.1048  140.0974  168.7259 C.ar    1  UNL1        0.1403
     14 N         140.7003  139.8821  169.2066 N.ar    1  UNL1       -0.2254
     15 C         140.6552  140.2124  170.6691 C.ar    1  UNL1        0.1189
     16 C         142.0318  140.6318  171.0923 C.ar    1  UNL1        0.0945
     17 N         142.9277  140.5607  169.8913 N.ar    1  UNL1       -0.3361
     18 H         143.8873  140.7797  169.8715 H       1  UNL1        0.1674
     19 C         141.0239  142.8064  162.0317 C.ar    1  UNL1        0.0539
     20 C         140.2311  144.0342  162.3691 C.ar    1  UNL1        0.0076
     21 C         139.9754  145.0740  161.3186 C.ar    1  UNL1        0.0371
     22 C         140.5125  144.8860  159.9308 C.ar    1  UNL1        0.1391
     23 C         141.3054  143.6582  159.5934 C.ar    1  UNL1        0.0371
     24 C         141.5611  142.6184  160.6438 C.ar    1  UNL1        0.0076
     25 O         140.2568  145.9258  158.8804 O.3     1  UNL1       -0.4690
     26 C         140.2229  145.5365  157.4322 C.3     1  UNL1        0.2508
     27 C         139.9741  146.5776  156.3813 C.ar    1  UNL1        0.1026
     28 C         140.6008  146.4393  155.0255 C.ar    1  UNL1        0.0185
     29 C         140.3521  147.4803  153.9747 C.ar    1  UNL1        0.0029
     30 C         139.4768  148.6596  154.2796 C.ar    1  UNL1        0.0207
     31 C         138.8502  148.7979  155.6354 C.ar    1  UNL1        0.0986
     32 N         139.0989  147.7569  156.6863 N.ar    1  UNL1       -0.2445
@<TRIPOS>BOND
     1     5     6    1
     2     6     7   ar
     3     7     8   ar
     4     8     9   ar
     5     9    13    1
     6    13    14   ar
     7    14    15   ar
     8    15    16   ar
     9    16    17   ar
    10     9    10   ar
    11    10    11    1
    12    10    12   ar
    13    12     1    1
    14     1     2   am
    15     2     3    2
    16     2    19    1
    17    19    20   ar
    18    20    21   ar
    19    21    22   ar
    20    22    25    1
    21    25    26    1
    22    26    27    1
    23    27    28   ar
    24    28    29   ar
    25    29    30   ar
    26    30    31   ar
    27    31    32   ar
    28    22    23   ar
    29    23    24   ar
    30    12     6   ar
    31    24    19   ar
    32    17    13   ar
    33    32    27   ar
    34    17    18    1
    35     1     4    1
@<TRIPOS>MOLECULE
*****
 32 35 0 0 0
SMALL
GASTEIGER

@<TRIPOS>ATOM
      1 N         141.3532  139.2942  163.7300 N.am    1  UNL1       -0.2809
      2 C         141.1502  140.3159  162.6507 C.2     1  UNL1        0.2495
      3 O         140.0505  141.3286  162.7739 O.2     1  UNL1       -0.2698
      4 H         142.0750  138.6295  163.6492 H       1  UNL1        0.1552
      5 C         138.6942  137.9105  163.6083 C.3     1  UNL1        0.0323
      6 C         139.1271  138.5934  164.8717 C.ar    1  UNL1       -0.0087
      7 C         138.2305  138.5845  166.0742 C.ar    1  UNL1       -0.0030
      8 C         138.6634  139.2675  167.3375 C.ar    1  UNL1        0.0024
      9 C         139.9929  139.9594  167.3984 C.ar    1  UNL1        0.0312
     10 C         140.8895  139.9683  166.1959 C.ar    1  UNL1       -0.0058
     11 C         142.2190  140.6602  166.2568 C.3     1  UNL1        0.0324
     12 C         140.4566  139.2853  164.9326 C.ar    1  UNL1        0.0426
     13 C         140.4258  140.6423  168.6618 C.ar    1  UNL1        0.1403
     14 N         140.3437  142.1137  168.9414 N.ar    1  UNL1       -0.2254
     15 C         140.8840  142.3546  170.3198 C.ar    1  UNL1        0.1189
     16 C         141.3001  141.0320  170.8922 C.ar    1  UNL1        0.0945
     17 N         141.0169  139.9738  169.8675 N.ar    1  UNL1       -0.3361
     18 H         141.1889  139.0097  169.9686 H       1  UNL1        0.1674
     19 C         142.0467  140.3249  161.4482 C.ar    1  UNL1        0.0539
     20 C         142.6237  141.6177  160.9524 C.ar    1  UNL1        0.0076
     21 C         143.5203  141.6266  159.7499 C.ar    1  UNL1        0.0371
     22 C         143.8399  140.3427  159.0431 C.ar    1  UNL1        0.1391
     23 C         143.2630  139.0499  159.5389 C.ar    1  UNL1        0.0371
     24 C         142.3664  139.0410  160.7414 C.ar    1  UNL1        0.0076
     25 O         144.7365  140.3517  157.8407 O.3     1  UNL1       -0.4690
     26 C         145.3280  141.6421  157.3557 C.3     1  UNL1        0.2508
     27 C         146.1529  141.6650  156.1031 C.ar    1  UNL1        0.1026
     28 C         147.5305  142.2582  156.1230 C.ar    1  UNL1        0.0185
     29 C         148.3554  142.2812  154.8705 C.ar    1  UNL1        0.0029
     30 C         147.8027  141.7110  153.5979 C.ar    1  UNL1        0.0207
     31 C         146.4251  141.1179  153.5780 C.ar    1  UNL1        0.0986
     32 N         145.6002  141.0949  154.8306 N.ar    1  UNL1       -0.2445
@<TRIPOS>BOND
     1     5     6    1
     2     6     7   ar
     3     7     8   ar
     4     8     9   ar
     5     9    13    1
     6    13    14   ar
     7    14    15   ar
     8    15    16   ar
     9    16    17   ar
    10     9    10   ar
    11    10    11    1
    12    10    12   ar
    13    12     1    1
    14     1     2   am
    15     2     3    2
    16     2    19    1
    17    19    20   ar
    18    20    21   ar
    19    21    22   ar
    20    22    25    1
    21    25    26    1
    22    26    27    1
    23    27    28   ar
    24    28    29   ar
    25    29    30   ar
    26    30    31   ar
    27    31    32   ar
    28    22    23   ar
    29    23    24   ar
    30    12     6   ar
    31    24    19   ar
    32    17    13   ar
    33    32    27   ar
    34    17    18    1
    35     1     4    1
@<TRIPOS>MOLECULE
*****
 32 35 0 0 0
SMALL
GASTEIGER

@<TRIPOS>ATOM
      1 N         141.6948  141.3308  163.6060 N.am    1  UNL1       -0.2809
      2 C         142.3360  142.6550  163.3137 C.2     1  UNL1        0.2495
      3 O         143.3977  143.1921  164.2272 O.2     1  UNL1       -0.2698
      4 H         140.9980  140.9782  163.0064 H       1  UNL1        0.1552
      5 C         143.8388  139.2464  163.3638 C.3     1  UNL1        0.0323
      6 C         143.1873  139.5015  164.6906 C.ar    1  UNL1       -0.0087
      7 C         143.6078  138.7145  165.8963 C.ar    1  UNL1       -0.0030
      8 C         142.9563  138.9696  167.2231 C.ar    1  UNL1        0.0024
      9 C         141.8843  140.0118  167.3442 C.ar    1  UNL1        0.0312
     10 C         141.4638  140.7988  166.1385 C.ar    1  UNL1       -0.0058
     11 C         140.3918  141.8411  166.2596 C.3     1  UNL1        0.0324
     12 C         142.1153  140.5437  164.8117 C.ar    1  UNL1        0.0426
     13 C         141.2328  140.2669  168.6710 C.ar    1  UNL1        0.1403
     14 N         139.8889  139.7614  169.1051 N.ar    1  UNL1       -0.2254
     15 C         139.6363  140.2544  170.4991 C.ar    1  UNL1        0.1189
     16 C         140.8241  141.0647  170.9265 C.ar    1  UNL1        0.0945
     17 N         141.8107  141.0724  169.7967 N.ar    1  UNL1       -0.3361
     18 H         142.6843  141.5264  169.7944 H       1  UNL1        0.1674
     19 C         141.9155  143.4420  162.1081 C.ar    1  UNL1        0.0539
     20 C         142.3905  143.0362  160.7443 C.ar    1  UNL1        0.0076
     21 C         141.9699  143.8233  159.5387 C.ar    1  UNL1        0.0371
     22 C         141.0745  145.0163  159.6967 C.ar    1  UNL1        0.1391
     23 C         140.5996  145.4222  161.0604 C.ar    1  UNL1        0.0371
     24 C         141.0201  144.6351  162.2661 C.ar    1  UNL1        0.0076
     25 O         140.6541  145.8034  158.4910 O.3     1  UNL1       -0.4690
     26 C         140.6284  145.1506  157.1408 C.3     1  UNL1        0.2508
     27 C         139.3558  144.5487  156.6227 C.ar    1  UNL1        0.1026
     28 C         138.7970  143.3118  157.2612 C.ar    1  UNL1        0.0185
     29 C         137.5245  142.7098  156.7433 C.ar    1  UNL1        0.0029
     30 C         136.8108  143.3448  155.5869 C.ar    1  UNL1        0.0207
     31 C         137.3696  144.5818  154.9484 C.ar    1  UNL1        0.0986
     32 N         138.6422  145.1837  155.4663 N.ar    1  UNL1       -0.2445
@<TRIPOS>BOND
     1     5     6    1
     2     6     7   ar
     3     7     8   ar
     4     8     9   ar
     5     9    13    1
     6    13    14   ar
     7    14    15   ar
     8    15    16   ar
     9    16    17   ar
    10     9    10   ar
    11    10    11    1
    12    10    12   ar
    13    12     1    1
    14     1     2   am
    15     2     3    2
    16     2    19    1
    17    19    20   ar
    18    20    21   ar
    19    21    22   ar
    20    22    25    1
    21    25    26    1
    22    26    27    1
    23    27    28   ar
    24    28    29   ar
    25    29    30   ar
    26    30    31   ar
    27    31    32   ar
    28    22    23   ar
    29    23    24   ar
    30    12     6   ar
    31    24    19   ar
    32    17    13   ar
    33    32    27   ar
    34    17    18    1
    35     1     4    1
@<TRIPOS>MOLECULE
*****
 32 35 0 0 0
SMALL
GASTEIGER

@<TRIPOS>ATOM
      1 N         141.9596  140.8435  163.1185 N.am    1  UNL1       -0.2809
      2 C         141.1032  139.8487  162.3925 C.2     1  UNL1        0.2495
      3 O         139.7430  139.5025  162.9218 O.2     1  UNL1       -0.2698
      4 H         142.8523  141.0707  162.7712 H       1  UNL1        0.1552
      5 C         140.3039  143.3400  162.9569 C.3     1  UNL1        0.0323
      6 C         140.6280  142.7402  164.2930 C.ar    1  UNL1       -0.0087
      7 C         140.1242  143.3886  165.5482 C.ar    1  UNL1       -0.0030
      8 C         140.4483  142.7888  166.8844 C.ar    1  UNL1        0.0024
      9 C         141.2761  141.5406  166.9652 C.ar    1  UNL1        0.0312
     10 C         141.7798  140.8922  165.7100 C.ar    1  UNL1       -0.0058
     11 C         142.6077  139.6438  165.7908 C.3     1  UNL1        0.0324
     12 C         141.4558  141.4920  164.3738 C.ar    1  UNL1        0.0426
     13 C         141.6001  140.9408  168.3013 C.ar    1  UNL1        0.1403
     14 N         142.8481  141.1834  169.0974 N.ar    1  UNL1       -0.2254
     15 C         142.7524  140.3856  170.3641 C.ar    1  UNL1        0.1189
     16 C         141.4453  139.6499  170.3508 C.ar    1  UNL1        0.0945
     17 N         140.7332  139.9930  169.0760 N.ar    1  UNL1       -0.3361
     18 H         139.8515  139.6554  168.7967 H       1  UNL1        0.1674
     19 C         141.6069  139.2003  161.1373 C.ar    1  UNL1        0.0539
     20 C         141.1901  139.7331  159.7985 C.ar    1  UNL1        0.0076
     21 C         141.6938  139.0845  158.5432 C.ar    1  UNL1        0.0371
     22 C         142.6144  137.9032  158.6268 C.ar    1  UNL1        0.1391
     23 C         143.0312  137.3704  159.9655 C.ar    1  UNL1        0.0371
     24 C         142.5275  138.0189  161.2208 C.ar    1  UNL1        0.0076
     25 O         143.1181  137.2547  157.3715 O.3     1  UNL1       -0.4690
     26 C         142.3537  136.1214  156.7540 C.3     1  UNL1        0.2508
     27 C         143.0010  134.7772  156.5979 C.ar    1  UNL1        0.1026
     28 C         143.8067  134.1976  157.7226 C.ar    1  UNL1        0.0185
     29 C         144.4539  132.8535  157.5665 C.ar    1  UNL1        0.0029
     30 C         144.2955  132.0890  156.2858 C.ar    1  UNL1        0.0207
     31 C         143.4898  132.6686  155.1611 C.ar    1  UNL1        0.0986
     32 N         142.8425  134.0127  155.3171 N.ar    1  UNL1       -0.2445
@<TRIPOS>BOND
     1     5     6    1
     2     6     7   ar
     3     7     8   ar
     4     8     9   ar
     5     9    13    1
     6    13    14   ar
     7    14    15   ar
     8    15    16   ar
     9    16    17   ar
    10     9    10   ar
    11    10    11    1
    12    10    12   ar
    13    12     1    1
    14     1     2   am
    15     2     3    2
    16     2    19    1
    17    19    20   ar
    18    20    21   ar
    19    21    22   ar
    20    22    25    1
    21    25    26    1
    22    26    27    1
    23    27    28   ar
    24    28    29   ar
    25    29    30   ar
    26    30    31   ar
    27    31    32   ar
    28    22    23   ar
    29    23    24   ar
    30    12     6   ar
    31    24    19   ar
    32    17    13   ar
    33    32    27   ar
    34    17    18    1
    35     1     4    1
