@<TRIPOS>MOLECULE
*****
 39 45 0 0 0
SMALL
GASTEIGER

@<TRIPOS>ATOM
      1 C         140.7619  141.1734  159.8618 C.3     1  UNL1        0.1558
      2 N         141.0939  140.0974  158.8709 N.3     1  UNL1       -0.2809
      3 C         142.4066  139.3769  158.9578 C.3     1  UNL1        0.1166
      4 C         143.3874  139.7325  160.0356 C.3     1  UNL1        0.0511
      5 C         143.0555  140.8086  161.0265 C.2     1  UNL1       -0.0037
      6 C         141.7427  141.5290  160.9396 C.2     1  UNL1        0.0784
      7 N         141.6933  142.5378  162.0486 N.2     1  UNL1       -0.2519
      8 C         142.9755  142.4407  162.8210 C.2     1  UNL1        0.0627
      9 C         143.4853  143.1875  164.0178 C.3     1  UNL1        0.0717
     10 C         144.8369  142.8655  164.5830 C.2     1  UNL1       -0.0198
     11 C         145.6787  141.7967  163.9513 C.2     1  UNL1       -0.0042
     12 C         145.1690  141.0500  162.7544 C.2     1  UNL1        0.0006
     13 C         143.8174  141.3720  162.1893 C.2     1  UNL1        0.0111
     14 H         141.0539  140.5261  157.9462 H       1  UNL1        0.1245
     15 C         137.5398  143.6890  163.2041 C.3     1  UNL1        0.0978
     16 C         138.5161  143.4130  162.0992 C.ar    1  UNL1        0.2369
     17 N         139.0555  142.0671  161.7150 N.ar    1  UNL1       -0.1928
     18 C         139.9971  142.2567  160.5630 C.ar    1  UNL1        0.2023
     19 N         140.0397  143.7198  160.2351 N.ar    1  UNL1       -0.0586
     20 O         139.1244  144.4344  161.1846 O.2     1  UNL1       -0.3373
     21 C         139.5155  141.1941  159.0275 C.ar    1  UNL1        0.0423
     22 C         138.3938  140.2003  159.0936 C.ar    1  UNL1        0.1194
     23 N         137.3570  140.6043  158.0875 N.ar    1  UNL1       -0.1679
     24 N         137.8379  141.8475  157.3998 N.ar    1  UNL1       -0.2476
     25 C         137.1122  142.5950  156.3207 C.3     1  UNL1        0.1537
     26 C         139.1719  142.2121  157.9808 C.ar    1  UNL1        0.0944
     27 C         142.7386  138.3008  157.9669 C.ar    1  UNL1        0.1319
     28 N         142.2930  136.8702  158.0366 N.ar    1  UNL1       -0.2282
     29 C         142.8535  136.1516  156.8452 C.ar    1  UNL1        0.1171
     30 C         143.6455  137.1380  156.0392 C.ar    1  UNL1        0.0942
     31 N         143.5745  138.4663  156.7325 N.ar    1  UNL1       -0.3385
     32 H         144.0016  139.3003  156.4304 H       1  UNL1        0.1672
     33 C         142.6565  134.7011  156.5173 C.ar    1  UNL1        0.1006
     34 C         141.7002  134.3004  155.4334 C.ar    1  UNL1        0.0230
     35 C         141.5032  132.8500  155.1055 C.ar    1  UNL1        0.0328
     36 C         142.2625  131.8004  155.8616 C.ar    1  UNL1        0.1592
     37 F         142.0655  130.3499  155.5337 F       1  UNL1       -0.2025
     38 C         143.2188  132.2011  156.9455 C.ar    1  UNL1        0.1284
     39 N         143.4158  133.6515  157.2734 N.ar    1  UNL1       -0.2399
@<TRIPOS>BOND
     1    15    16    1
     2    16    17   ar
     3    17    18   ar
     4     1    18    1
     5     1    21    1
     6    21    22   ar
     7    22    23   ar
     8    23    24   ar
     9    24    25    1
    10    24    26   ar
    11     1     2    1
    12     2     3    1
    13     3    27    1
    14    27    28   ar
    15    28    29   ar
    16    29    33    1
    17    33    34   ar
    18    34    35   ar
    19    35    36   ar
    20    36    37    1
    21    36    38   ar
    22    38    39   ar
    23    29    30   ar
    24    30    31   ar
    25     3     4    1
    26     4     5    1
    27     5     6    2
    28     6     7    1
    29     7     8    2
    30     8     9    1
    31     9    10    1
    32    10    11    2
    33    11    12    1
    34    12    13    2
    35    18    19   ar
    36    19    20   ar
    37    20    16   ar
    38     6     1    1
    39    13     8    1
    40    26    21   ar
    41    31    27   ar
    42    13     5    1
    43    39    33   ar
    44     2    14    1
    45    31    32    1
@<TRIPOS>MOLECULE
*****
 39 45 0 0 0
SMALL
GASTEIGER

@<TRIPOS>ATOM
      1 C         141.5744  142.0322  161.6650 C.3     1  UNL1        0.1558
      2 N         141.8275  141.3103  160.3748 N.3     1  UNL1       -0.2809
      3 C         142.4083  139.9274  160.3907 C.3     1  UNL1        0.1166
      4 C         142.7360  139.2664  161.6967 C.3     1  UNL1        0.0511
      5 C         142.4829  139.9884  162.9870 C.2     1  UNL1       -0.0037
      6 C         141.9021  141.3712  162.9711 C.2     1  UNL1        0.0784
      7 N         141.7635  141.8320  164.3918 N.2     1  UNL1       -0.2519
      8 C         142.2587  140.7340  165.2857 C.2     1  UNL1        0.0627
      9 C         142.3622  140.6245  166.7781 C.3     1  UNL1        0.0717
     10 C         142.9103  139.3755  167.4022 C.2     1  UNL1       -0.0198
     11 C         143.3549  138.2360  166.5339 C.2     1  UNL1       -0.0042
     12 C         143.2514  138.3455  165.0416 C.2     1  UNL1        0.0006
     13 C         142.7033  139.5945  164.4174 C.2     1  UNL1        0.0111
     14 H         142.4663  141.8917  159.8325 H       1  UNL1        0.1245
     15 C         138.7525  144.8962  165.0877 C.3     1  UNL1        0.0978
     16 C         139.8601  144.4307  164.1897 C.ar    1  UNL1        0.2369
     17 N         139.8521  143.1862  163.3523 N.ar    1  UNL1       -0.1928
     18 C         141.1571  143.1142  162.6165 C.ar    1  UNL1        0.2023
     19 N         141.9718  144.3141  162.9991 N.ar    1  UNL1       -0.0586
     20 O         141.1702  145.1277  163.9715 O.2     1  UNL1       -0.3373
     21 C         141.1018  143.0689  160.6895 C.ar    1  UNL1        0.0423
     22 C         139.6722  143.4007  160.3790 C.ar    1  UNL1        0.1194
     23 N         139.6628  144.4928  159.3506 N.ar    1  UNL1       -0.1679
     24 N         141.0863  144.8358  159.0256 N.ar    1  UNL1       -0.2476
     25 C         141.5408  145.8762  158.0453 C.3     1  UNL1        0.1537
     26 C         141.9757  143.9558  159.8530 C.ar    1  UNL1        0.0944
     27 C         142.6615  139.2054  159.1004 C.ar    1  UNL1        0.1319
     28 N         142.5932  137.7214  158.8924 N.ar    1  UNL1       -0.2282
     29 C         142.9169  137.4395  157.4552 C.ar    1  UNL1        0.1171
     30 C         143.1852  138.7491  156.7749 C.ar    1  UNL1        0.0942
     31 N         143.0273  139.8405  157.7917 N.ar    1  UNL1       -0.3385
     32 H         143.1435  140.8045  157.6288 H       1  UNL1        0.1672
     33 C         142.9640  136.0855  156.8112 C.ar    1  UNL1        0.1006
     34 C         142.6946  135.9438  155.3424 C.ar    1  UNL1        0.0230
     35 C         142.7417  134.5899  154.6985 C.ar    1  UNL1        0.0328
     36 C         143.0581  133.3777  155.5233 C.ar    1  UNL1        0.1592
     37 F         143.1052  132.0237  154.8794 F       1  UNL1       -0.2025
     38 C         143.3274  133.5194  156.9921 C.ar    1  UNL1        0.1284
     39 N         143.2803  134.8733  157.6361 N.ar    1  UNL1       -0.2399
@<TRIPOS>BOND
     1    15    16    1
     2    16    17   ar
     3    17    18   ar
     4     1    18    1
     5     1    21    1
     6    21    22   ar
     7    22    23   ar
     8    23    24   ar
     9    24    25    1
    10    24    26   ar
    11     1     2    1
    12     2     3    1
    13     3    27    1
    14    27    28   ar
    15    28    29   ar
    16    29    33    1
    17    33    34   ar
    18    34    35   ar
    19    35    36   ar
    20    36    37    1
    21    36    38   ar
    22    38    39   ar
    23    29    30   ar
    24    30    31   ar
    25     3     4    1
    26     4     5    1
    27     5     6    2
    28     6     7    1
    29     7     8    2
    30     8     9    1
    31     9    10    1
    32    10    11    2
    33    11    12    1
    34    12    13    2
    35    18    19   ar
    36    19    20   ar
    37    20    16   ar
    38     6     1    1
    39    13     8    1
    40    26    21   ar
    41    31    27   ar
    42    13     5    1
    43    39    33   ar
    44     2    14    1
    45    31    32    1
@<TRIPOS>MOLECULE
*****
 39 45 0 0 0
SMALL
GASTEIGER

@<TRIPOS>ATOM
      1 C         141.3623  141.1916  160.1818 C.3     1  UNL1        0.1558
      2 N         140.8054  142.0207  159.0627 N.3     1  UNL1       -0.2809
      3 C         140.9214  143.5155  159.1072 C.3     1  UNL1        0.1166
      4 C         141.5943  144.1813  160.2708 C.3     1  UNL1        0.0511
      5 C         142.1512  143.3522  161.3899 C.2     1  UNL1       -0.0037
      6 C         142.0352  141.8574  161.3454 C.2     1  UNL1        0.0784
      7 N         142.6747  141.3058  162.5851 N.2     1  UNL1       -0.2519
      8 C         143.1859  142.4597  163.3958 C.2     1  UNL1        0.0627
      9 C         143.9041  142.5222  164.7111 C.3     1  UNL1        0.0717
     10 C         144.2989  143.8494  165.2877 C.2     1  UNL1       -0.0198
     11 C         143.9754  145.1142  164.5490 C.2     1  UNL1       -0.0042
     12 C         143.2571  145.0517  163.2337 C.2     1  UNL1        0.0006
     13 C         142.8624  143.7245  162.6571 C.2     1  UNL1        0.0111
     14 H         139.8104  141.8042  159.0028 H       1  UNL1        0.1245
     15 C         141.1267  137.1901  163.6187 C.3     1  UNL1        0.0978
     16 C         141.6216  138.1466  162.5747 C.ar    1  UNL1        0.2369
     17 N         140.8554  139.3032  162.0044 N.ar    1  UNL1       -0.1928
     18 C         141.7299  139.9859  160.9950 C.ar    1  UNL1        0.2023
     19 N         143.0366  139.2513  160.9413 N.ar    1  UNL1       -0.0586
     20 O         142.9696  138.1145  161.9176 O.2     1  UNL1       -0.3373
     21 C         140.8171  140.1071  159.3006 C.ar    1  UNL1        0.0423
     22 C         139.3733  139.7233  159.1655 C.ar    1  UNL1        0.1194
     23 N         139.2838  138.5949  158.1812 N.ar    1  UNL1       -0.1679
     24 N         140.6722  138.2814  157.7080 N.ar    1  UNL1       -0.2476
     25 C         141.0472  137.2197  156.7170 C.3     1  UNL1        0.1537
     26 C         141.6199  139.2160  158.3998 C.ar    1  UNL1        0.0944
     27 C         140.3645  144.3447  157.9880 C.ar    1  UNL1        0.1319
     28 N         140.2253  145.8382  157.9821 N.ar    1  UNL1       -0.2282
     29 C         139.6238  146.2424  156.6688 C.ar    1  UNL1        0.1171
     30 C         139.3913  144.9988  155.8631 C.ar    1  UNL1        0.0942
     31 N         139.8491  143.8259  156.6784 N.ar    1  UNL1       -0.3385
     32 H         139.8169  142.8814  156.4024 H       1  UNL1        0.1672
     33 C         139.3099  147.6443  156.2370 C.ar    1  UNL1        0.1006
     34 C         139.7326  148.1235  154.8799 C.ar    1  UNL1        0.0230
     35 C         139.4188  149.5252  154.4482 C.ar    1  UNL1        0.0328
     36 C         138.6823  150.4479  155.3735 C.ar    1  UNL1        0.1592
     37 F         138.3684  151.8497  154.9417 F       1  UNL1       -0.2025
     38 C         138.2596  149.9687  156.7306 C.ar    1  UNL1        0.1284
     39 N         138.5734  148.5669  157.1624 N.ar    1  UNL1       -0.2399
@<TRIPOS>BOND
     1    15    16    1
     2    16    17   ar
     3    17    18   ar
     4     1    18    1
     5     1    21    1
     6    21    22   ar
     7    22    23   ar
     8    23    24   ar
     9    24    25    1
    10    24    26   ar
    11     1     2    1
    12     2     3    1
    13     3    27    1
    14    27    28   ar
    15    28    29   ar
    16    29    33    1
    17    33    34   ar
    18    34    35   ar
    19    35    36   ar
    20    36    37    1
    21    36    38   ar
    22    38    39   ar
    23    29    30   ar
    24    30    31   ar
    25     3     4    1
    26     4     5    1
    27     5     6    2
    28     6     7    1
    29     7     8    2
    30     8     9    1
    31     9    10    1
    32    10    11    2
    33    11    12    1
    34    12    13    2
    35    18    19   ar
    36    19    20   ar
    37    20    16   ar
    38     6     1    1
    39    13     8    1
    40    26    21   ar
    41    31    27   ar
    42    13     5    1
    43    39    33   ar
    44     2    14    1
    45    31    32    1
@<TRIPOS>MOLECULE
*****
 39 45 0 0 0
SMALL
GASTEIGER

@<TRIPOS>ATOM
      1 C         140.0222  141.7996  161.1446 C.3     1  UNL1        0.1558
      2 N         140.7542  141.1817  159.9904 N.3     1  UNL1       -0.2809
      3 C         141.0545  139.7121  159.9929 C.3     1  UNL1        0.1166
      4 C         140.6228  138.8603  161.1497 C.3     1  UNL1        0.0511
      5 C         139.8907  139.4782  162.3040 C.2     1  UNL1       -0.0037
      6 C         139.5904  140.9478  162.3014 C.2     1  UNL1        0.0784
      7 N         138.8585  141.2735  163.5696 N.2     1  UNL1       -0.2519
      8 C         138.7065  140.0052  164.3559 C.2     1  UNL1        0.0627
      9 C         138.0697  139.7173  165.6831 C.3     1  UNL1        0.0717
     10 C         138.0707  138.3199  166.2281 C.2     1  UNL1       -0.0198
     11 C         138.7087  137.2103  165.4459 C.2     1  UNL1       -0.0042
     12 C         139.3455  137.4982  164.1187 C.2     1  UNL1        0.0006
     13 C         139.3444  138.8956  163.5737 C.2     1  UNL1        0.0111
     14 H         141.6494  141.6650  159.9168 H       1  UNL1        0.1245
     15 C         138.9923  145.1207  165.1183 C.3     1  UNL1        0.0978
     16 C         138.8867  144.3651  163.8268 C.ar    1  UNL1        0.2369
     17 N         139.8535  143.3323  163.3280 N.ar    1  UNL1       -0.1928
     18 C         139.3601  142.8386  162.0004 C.ar    1  UNL1        0.2023
     19 N         138.0885  143.5661  161.6786 N.ar    1  UNL1       -0.0586
     20 O         137.7959  144.5096  162.8074 O.2     1  UNL1       -0.3373
     21 C         140.2240  143.0121  160.2851 C.ar    1  UNL1        0.0423
     22 C         141.0822  144.1963  160.6185 C.ar    1  UNL1        0.1194
     23 N         140.9916  145.1695  159.4806 N.ar    1  UNL1       -0.1679
     24 N         140.0775  144.5868  158.4439 N.ar    1  UNL1       -0.2476
     25 C         139.7034  145.2253  157.1392 C.3     1  UNL1        0.1537
     26 C         139.6030  143.2535  158.9411 C.ar    1  UNL1        0.0944
     27 C         141.7867  139.0941  158.8387 C.ar    1  UNL1        0.1319
     28 N         141.6724  137.6696  158.3831 N.ar    1  UNL1       -0.2282
     29 C         142.5766  137.4873  157.2003 C.ar    1  UNL1        0.1171
     30 C         143.2497  138.7992  156.9248 C.ar    1  UNL1        0.0942
     31 N         142.7615  139.7923  157.9374 N.ar    1  UNL1       -0.3385
     32 H         143.0331  140.7365  157.9996 H       1  UNL1        0.1672
     33 C         142.7732  136.2162  156.4284 C.ar    1  UNL1        0.1006
     34 C         142.4199  136.1611  154.9717 C.ar    1  UNL1        0.0230
     35 C         142.6165  134.8901  154.1998 C.ar    1  UNL1        0.0328
     36 C         143.1664  133.6742  154.8847 C.ar    1  UNL1        0.1592
     37 F         143.3630  132.4031  154.1128 F       1  UNL1       -0.2025
     38 C         143.5198  133.7293  156.3414 C.ar    1  UNL1        0.1284
     39 N         143.3232  135.0003  157.1133 N.ar    1  UNL1       -0.2399
@<TRIPOS>BOND
     1    15    16    1
     2    16    17   ar
     3    17    18   ar
     4     1    18    1
     5     1    21    1
     6    21    22   ar
     7    22    23   ar
     8    23    24   ar
     9    24    25    1
    10    24    26   ar
    11     1     2    1
    12     2     3    1
    13     3    27    1
    14    27    28   ar
    15    28    29   ar
    16    29    33    1
    17    33    34   ar
    18    34    35   ar
    19    35    36   ar
    20    36    37    1
    21    36    38   ar
    22    38    39   ar
    23    29    30   ar
    24    30    31   ar
    25     3     4    1
    26     4     5    1
    27     5     6    2
    28     6     7    1
    29     7     8    2
    30     8     9    1
    31     9    10    1
    32    10    11    2
    33    11    12    1
    34    12    13    2
    35    18    19   ar
    36    19    20   ar
    37    20    16   ar
    38     6     1    1
    39    13     8    1
    40    26    21   ar
    41    31    27   ar
    42    13     5    1
    43    39    33   ar
    44     2    14    1
    45    31    32    1
@<TRIPOS>MOLECULE
*****
 39 45 0 0 0
SMALL
GASTEIGER

@<TRIPOS>ATOM
      1 C         139.7092  141.5892  160.0494 C.3     1  UNL1        0.1558
      2 N         139.8086  140.7693  158.7973 N.3     1  UNL1       -0.2809
      3 C         139.6707  139.2772  158.8649 C.3     1  UNL1        0.1166
      4 C         139.4335  138.6049  160.1847 C.3     1  UNL1        0.0511
      5 C         139.3341  139.4248  161.4368 C.2     1  UNL1       -0.0037
      6 C         139.4720  140.9169  161.3692 C.2     1  UNL1        0.0784
      7 N         139.3297  141.4590  162.7606 N.2     1  UNL1       -0.2519
      8 C         139.1040  140.3019  163.6881 C.2     1  UNL1        0.0627
      9 C         138.8963  140.2307  165.1719 C.3     1  UNL1        0.0717
     10 C         138.6914  138.9023  165.8376 C.2     1  UNL1       -0.0198
     11 C         138.6941  137.6451  165.0195 C.2     1  UNL1       -0.0042
     12 C         138.9017  137.7163  163.5356 C.2     1  UNL1        0.0006
     13 C         139.1067  139.0447  162.8700 C.2     1  UNL1        0.0111
     14 H         140.7240  140.9623  158.3908 H       1  UNL1        0.1245
     15 C         141.2321  145.3898  163.3835 C.3     1  UNL1        0.0978
     16 C         140.3898  144.5340  162.4847 C.ar    1  UNL1        0.2369
     17 N         140.8593  143.3353  161.7147 N.ar    1  UNL1       -0.1928
     18 C         139.6899  142.7870  160.9522 C.ar    1  UNL1        0.2023
     19 N         138.4975  143.6466  161.2509 N.ar    1  UNL1       -0.0586
     20 O         138.9301  144.7263  162.1980 O.2     1  UNL1       -0.3373
     21 C         139.9397  142.6774  159.0432 C.ar    1  UNL1        0.0423
     22 C         138.9550  143.1510  158.0155 C.ar    1  UNL1        0.1194
     23 N         139.6022  144.2495  157.2251 N.ar    1  UNL1       -0.1679
     24 N         140.9868  144.4548  157.7644 N.ar    1  UNL1       -0.2476
     25 C         141.9870  145.4559  157.2674 C.3     1  UNL1        0.1537
     26 C         141.1954  143.4832  158.8881 C.ar    1  UNL1        0.0944
     27 C         139.7701  138.4573  157.6127 C.ar    1  UNL1        0.1319
     28 N         140.7027  137.3046  157.3853 N.ar    1  UNL1       -0.2282
     29 C         140.4633  136.7810  156.0002 C.ar    1  UNL1        0.1171
     30 C         139.3829  137.6101  155.3715 C.ar    1  UNL1        0.0942
     31 N         138.9544  138.6461  156.3681 N.ar    1  UNL1       -0.3385
     32 H         138.2598  139.3299  156.2297 H       1  UNL1        0.1672
     33 C         141.1789  135.6304  155.3567 C.ar    1  UNL1        0.1006
     34 C         142.2182  134.8692  156.1251 C.ar    1  UNL1        0.0230
     35 C         142.9337  133.7186  155.4817 C.ar    1  UNL1        0.0328
     36 C         142.6099  133.3291  154.0699 C.ar    1  UNL1        0.1592
     37 F         143.3255  132.1784  153.4264 F       1  UNL1       -0.2025
     38 C         141.5706  134.0902  153.3014 C.ar    1  UNL1        0.1284
     39 N         140.8551  135.2408  153.9448 N.ar    1  UNL1       -0.2399
@<TRIPOS>BOND
     1    15    16    1
     2    16    17   ar
     3    17    18   ar
     4     1    18    1
     5     1    21    1
     6    21    22   ar
     7    22    23   ar
     8    23    24   ar
     9    24    25    1
    10    24    26   ar
    11     1     2    1
    12     2     3    1
    13     3    27    1
    14    27    28   ar
    15    28    29   ar
    16    29    33    1
    17    33    34   ar
    18    34    35   ar
    19    35    36   ar
    20    36    37    1
    21    36    38   ar
    22    38    39   ar
    23    29    30   ar
    24    30    31   ar
    25     3     4    1
    26     4     5    1
    27     5     6    2
    28     6     7    1
    29     7     8    2
    30     8     9    1
    31     9    10    1
    32    10    11    2
    33    11    12    1
    34    12    13    2
    35    18    19   ar
    36    19    20   ar
    37    20    16   ar
    38     6     1    1
    39    13     8    1
    40    26    21   ar
    41    31    27   ar
    42    13     5    1
    43    39    33   ar
    44     2    14    1
    45    31    32    1
@<TRIPOS>MOLECULE
*****
 39 45 0 0 0
SMALL
GASTEIGER

@<TRIPOS>ATOM
      1 C         142.3535  141.7221  160.1417 C.3     1  UNL1        0.1558
      2 N         142.5057  140.7193  159.0366 N.3     1  UNL1       -0.2809
      3 C         142.7867  139.2821  159.3615 C.3     1  UNL1        0.1166
      4 C         142.9154  138.8477  160.7915 C.3     1  UNL1        0.0511
      5 C         142.7632  139.8505  161.8966 C.2     1  UNL1       -0.0037
      6 C         142.4822  141.2877  161.5717 C.2     1  UNL1        0.0784
      7 N         142.3824  142.0439  162.8632 N.2     1  UNL1       -0.2519
      8 C         142.6018  141.0741  163.9864 C.2     1  UNL1        0.0627
      9 C         142.6176  141.2503  165.4759 C.3     1  UNL1        0.0717
     10 C         142.8688  140.0709  166.3679 C.2     1  UNL1       -0.0198
     11 C         143.1041  138.7153  165.7705 C.2     1  UNL1       -0.0042
     12 C         143.0882  138.5391  164.2810 C.2     1  UNL1        0.0006
     13 C         142.8371  139.7185  163.3889 C.2     1  UNL1        0.0111
     14 H         143.2732  141.0436  158.4483 H       1  UNL1        0.1245
     15 C         139.9914  145.9246  162.2957 C.3     1  UNL1        0.0978
     16 C         141.0439  144.9657  161.8238 C.ar    1  UNL1        0.2369
     17 N         140.7987  143.6641  161.1195 N.ar    1  UNL1       -0.1928
     18 C         142.1295  143.0340  160.8337 C.ar    1  UNL1        0.2023
     19 N         143.1972  143.9460  161.3612 N.ar    1  UNL1       -0.0586
     20 O         142.5262  145.1398  161.9732 O.2     1  UNL1       -0.3373
     21 C         142.1470  142.6121  158.9521 C.ar    1  UNL1        0.0423
     22 C         143.1929  143.4640  158.2961 C.ar    1  UNL1        0.1194
     23 N         142.5505  144.1848  157.1482 N.ar    1  UNL1       -0.1679
     24 N         141.1077  143.7785  157.0946 N.ar    1  UNL1       -0.2476
     25 C         140.0925  144.2596  156.1007 C.3     1  UNL1        0.1537
     26 C         140.8582  142.8064  158.2095 C.ar    1  UNL1        0.0944
     27 C         142.9389  138.2792  158.2564 C.ar    1  UNL1        0.1319
     28 N         142.5850  136.8236  158.3320 N.ar    1  UNL1       -0.2282
     29 C         142.8992  136.2006  157.0041 C.ar    1  UNL1        0.1171
     30 C         143.4473  137.2713  156.1079 C.ar    1  UNL1        0.0942
     31 N         143.4719  138.5559  156.8819 N.ar    1  UNL1       -0.3385
     32 H         143.7831  139.4277  156.5466 H       1  UNL1        0.1672
     33 C         142.7001  134.7599  156.6369 C.ar    1  UNL1        0.1006
     34 C         143.5207  133.6958  157.3035 C.ar    1  UNL1        0.0230
     35 C         143.3218  132.2551  156.9364 C.ar    1  UNL1        0.0328
     36 C         142.3022  131.8785  155.9027 C.ar    1  UNL1        0.1592
     37 F         142.1032  130.4378  155.5355 F       1  UNL1       -0.2025
     38 C         141.4816  132.9426  155.2361 C.ar    1  UNL1        0.1284
     39 N         141.6806  134.3833  155.6032 N.ar    1  UNL1       -0.2399
@<TRIPOS>BOND
     1    15    16    1
     2    16    17   ar
     3    17    18   ar
     4     1    18    1
     5     1    21    1
     6    21    22   ar
     7    22    23   ar
     8    23    24   ar
     9    24    25    1
    10    24    26   ar
    11     1     2    1
    12     2     3    1
    13     3    27    1
    14    27    28   ar
    15    28    29   ar
    16    29    33    1
    17    33    34   ar
    18    34    35   ar
    19    35    36   ar
    20    36    37    1
    21    36    38   ar
    22    38    39   ar
    23    29    30   ar
    24    30    31   ar
    25     3     4    1
    26     4     5    1
    27     5     6    2
    28     6     7    1
    29     7     8    2
    30     8     9    1
    31     9    10    1
    32    10    11    2
    33    11    12    1
    34    12    13    2
    35    18    19   ar
    36    19    20   ar
    37    20    16   ar
    38     6     1    1
    39    13     8    1
    40    26    21   ar
    41    31    27   ar
    42    13     5    1
    43    39    33   ar
    44     2    14    1
    45    31    32    1
@<TRIPOS>MOLECULE
*****
 39 45 0 0 0
SMALL
GASTEIGER

@<TRIPOS>ATOM
      1 C         141.0201  142.5148  159.3044 C.3     1  UNL1        0.1558
      2 N         139.7537  142.0979  158.6170 N.3     1  UNL1       -0.2809
      3 C         139.7993  141.5822  157.2093 C.3     1  UNL1        0.1166
      4 C         141.1112  141.4833  156.4888 C.3     1  UNL1        0.0511
      5 C         142.3776  141.9001  157.1761 C.2     1  UNL1       -0.0037
      6 C         142.3321  142.4159  158.5839 C.2     1  UNL1        0.0784
      7 N         143.7337  142.7499  159.0007 N.2     1  UNL1       -0.2519
      8 C         144.6456  142.4405  157.8505 C.2     1  UNL1        0.0627
      9 C         146.1307  142.5692  157.6844 C.3     1  UNL1        0.0717
     10 C         146.7778  142.1727  156.3905 C.2     1  UNL1       -0.0198
     11 C         145.9396  141.6475  155.2628 C.2     1  UNL1       -0.0042
     12 C         144.4544  141.5188  155.4290 C.2     1  UNL1        0.0006
     13 C         143.8074  141.9153  156.7228 C.2     1  UNL1        0.0111
     14 H         139.1393  142.9121  158.6126 H       1  UNL1        0.1245
     15 C         144.2035  142.7340  163.5113 C.3     1  UNL1        0.0978
     16 C         143.4054  143.1288  162.3042 C.ar    1  UNL1        0.2369
     17 N         142.5559  142.2149  161.4715 N.ar    1  UNL1       -0.1928
     18 C         141.9422  143.0279  160.3705 C.ar    1  UNL1        0.2023
     19 N         142.4123  144.4442  160.5226 N.ar    1  UNL1       -0.0586
     20 O         143.3167  144.5065  161.7178 O.2     1  UNL1       -0.3373
     21 C         140.0284  142.7919  160.3951 C.ar    1  UNL1        0.0423
     22 C         139.6268  144.1467  160.8983 C.ar    1  UNL1        0.1194
     23 N         138.6144  143.9549  161.9884 N.ar    1  UNL1       -0.1679
     24 N         138.3903  142.4816  162.1589 N.ar    1  UNL1       -0.2476
     25 C         137.4563  141.8398  163.1415 C.3     1  UNL1        0.1537
     26 C         139.2642  141.7628  161.1742 C.ar    1  UNL1        0.0944
     27 C         138.5328  141.1653  156.5219 C.ar    1  UNL1        0.1319
     28 N         137.1578  141.1823  157.1210 N.ar    1  UNL1       -0.2282
     29 C         136.1943  140.6857  156.0842 C.ar    1  UNL1        0.1171
     30 C         136.9738  140.3619  154.8442 C.ar    1  UNL1        0.0942
     31 N         138.4191  140.6582  155.1148 N.ar    1  UNL1       -0.3385
     32 H         139.1626  140.5406  154.4802 H       1  UNL1        0.1672
     33 C         134.7115  140.5389  156.2569 C.ar    1  UNL1        0.1006
     34 C         133.7737  141.2955  155.3635 C.ar    1  UNL1        0.0230
     35 C         132.2910  141.1486  155.5363 C.ar    1  UNL1        0.0328
     36 C         131.7460  140.2452  156.6024 C.ar    1  UNL1        0.1592
     37 F         130.2632  140.0983  156.7752 F       1  UNL1       -0.2025
     38 C         132.6837  139.4885  157.4958 C.ar    1  UNL1        0.1284
     39 N         134.1665  139.6354  157.3231 N.ar    1  UNL1       -0.2399
@<TRIPOS>BOND
     1    15    16    1
     2    16    17   ar
     3    17    18   ar
     4     1    18    1
     5     1    21    1
     6    21    22   ar
     7    22    23   ar
     8    23    24   ar
     9    24    25    1
    10    24    26   ar
    11     1     2    1
    12     2     3    1
    13     3    27    1
    14    27    28   ar
    15    28    29   ar
    16    29    33    1
    17    33    34   ar
    18    34    35   ar
    19    35    36   ar
    20    36    37    1
    21    36    38   ar
    22    38    39   ar
    23    29    30   ar
    24    30    31   ar
    25     3     4    1
    26     4     5    1
    27     5     6    2
    28     6     7    1
    29     7     8    2
    30     8     9    1
    31     9    10    1
    32    10    11    2
    33    11    12    1
    34    12    13    2
    35    18    19   ar
    36    19    20   ar
    37    20    16   ar
    38     6     1    1
    39    13     8    1
    40    26    21   ar
    41    31    27   ar
    42    13     5    1
    43    39    33   ar
    44     2    14    1
    45    31    32    1
@<TRIPOS>MOLECULE
*****
 39 45 0 0 0
SMALL
GASTEIGER

@<TRIPOS>ATOM
      1 C         141.9605  140.8525  164.3712 C.3     1  UNL1        0.1558
      2 N         141.6510  141.8764  163.3196 N.3     1  UNL1       -0.2809
      3 C         141.0161  143.1795  163.7055 C.3     1  UNL1        0.1166
      4 C         140.6906  143.4587  165.1429 C.3     1  UNL1        0.0511
      5 C         141.0001  142.4348  166.1945 C.2     1  UNL1       -0.0037
      6 C         141.6351  141.1317  165.8086 C.2     1  UNL1        0.0784
      7 N         141.8225  140.3202  167.0561 N.2     1  UNL1       -0.2519
      8 C         141.3034  141.1216  168.2129 C.2     1  UNL1        0.0627
      9 C         141.2278  140.8302  169.6824 C.3     1  UNL1        0.0717
     10 C         140.6440  141.8458  170.6193 C.2     1  UNL1       -0.0198
     11 C         140.1358  143.1527  170.0867 C.2     1  UNL1       -0.0042
     12 C         140.2113  143.4441  168.6173 C.2     1  UNL1        0.0006
     13 C         140.7951  142.4286  167.6804 C.2     1  UNL1        0.0111
     14 H         141.0243  141.4304  162.6498 H       1  UNL1        0.1245
     15 C         144.9189  137.3461  166.9853 C.3     1  UNL1        0.0978
     16 C         143.8007  137.9662  166.2010 C.ar    1  UNL1        0.2369
     17 N         143.7274  139.3945  165.7487 N.ar    1  UNL1       -0.1928
     18 C         142.4410  139.5779  164.9995 C.ar    1  UNL1        0.2023
     19 N         141.7192  138.2631  164.9887 N.ar    1  UNL1       -0.0586
     20 O         142.5596  137.2669  165.7313 O.2     1  UNL1       -0.3373
     21 C         142.4528  140.1307  163.1520 C.ar    1  UNL1        0.0423
     22 C         143.8885  139.8981  162.7847 C.ar    1  UNL1        0.1194
     23 N         143.9188  139.1383  161.4917 N.ar    1  UNL1       -0.1679
     24 N         142.5020  138.9013  161.0599 N.ar    1  UNL1       -0.2476
     25 C         142.0675  138.1781  159.8198 C.3     1  UNL1        0.1537
     26 C         141.5960  139.5146  162.0860 C.ar    1  UNL1        0.0944
     27 C         140.7066  144.2034  162.6538 C.ar    1  UNL1        0.1319
     28 N         141.0347  144.0951  161.1942 N.ar    1  UNL1       -0.2282
     29 C         140.5456  145.3401  160.5155 C.ar    1  UNL1        0.1171
     30 C         139.9151  146.2179  161.5557 C.ar    1  UNL1        0.0942
     31 N         140.0146  145.5154  162.8773 N.ar    1  UNL1       -0.3385
     32 H         139.6839  145.8556  163.7398 H       1  UNL1        0.1672
     33 C         140.6658  145.6525  159.0533 C.ar    1  UNL1        0.1006
     34 C         141.9138  145.2830  158.3076 C.ar    1  UNL1        0.0230
     35 C         142.0340  145.5953  156.8454 C.ar    1  UNL1        0.0328
     36 C         140.9063  146.2771  156.1290 C.ar    1  UNL1        0.1592
     37 F         141.0265  146.5895  154.6667 F       1  UNL1       -0.2025
     38 C         139.6583  146.6466  156.8747 C.ar    1  UNL1        0.1284
     39 N         139.5381  146.3343  158.3368 N.ar    1  UNL1       -0.2399
@<TRIPOS>BOND
     1    15    16    1
     2    16    17   ar
     3    17    18   ar
     4     1    18    1
     5     1    21    1
     6    21    22   ar
     7    22    23   ar
     8    23    24   ar
     9    24    25    1
    10    24    26   ar
    11     1     2    1
    12     2     3    1
    13     3    27    1
    14    27    28   ar
    15    28    29   ar
    16    29    33    1
    17    33    34   ar
    18    34    35   ar
    19    35    36   ar
    20    36    37    1
    21    36    38   ar
    22    38    39   ar
    23    29    30   ar
    24    30    31   ar
    25     3     4    1
    26     4     5    1
    27     5     6    2
    28     6     7    1
    29     7     8    2
    30     8     9    1
    31     9    10    1
    32    10    11    2
    33    11    12    1
    34    12    13    2
    35    18    19   ar
    36    19    20   ar
    37    20    16   ar
    38     6     1    1
    39    13     8    1
    40    26    21   ar
    41    31    27   ar
    42    13     5    1
    43    39    33   ar
    44     2    14    1
    45    31    32    1
@<TRIPOS>MOLECULE
*****
 39 45 0 0 0
SMALL
GASTEIGER

@<TRIPOS>ATOM
      1 C         141.2885  140.2553  159.8996 C.3     1  UNL1        0.1558
      2 N         141.8029  139.0115  159.2376 N.3     1  UNL1       -0.2809
      3 C         142.4166  139.0883  157.8710 C.3     1  UNL1        0.1166
      4 C         142.5159  140.4089  157.1665 C.3     1  UNL1        0.0511
      5 C         142.0015  141.6527  157.8286 C.2     1  UNL1       -0.0037
      6 C         141.3878  141.5759  159.1952 C.2     1  UNL1        0.0784
      7 N         140.9702  142.9602  159.5941 N.2     1  UNL1       -0.2519
      8 C         141.3258  143.8926  158.4742 C.2     1  UNL1        0.0627
      9 C         141.1516  145.3730  158.3071 C.3     1  UNL1        0.0717
     10 C         141.6148  146.0453  157.0487 C.2     1  UNL1       -0.0198
     11 C         142.2522  145.2371  155.9575 C.2     1  UNL1       -0.0042
     12 C         142.4264  143.7567  156.1247 C.2     1  UNL1        0.0006
     13 C         141.9632  143.0845  157.3830 C.2     1  UNL1        0.0111
     14 H         141.0157  138.3663  159.1710 H       1  UNL1        0.1245
     15 C         137.7183  142.8797  162.7713 C.3     1  UNL1        0.0978
     16 C         139.0233  142.3546  162.2507 C.ar    1  UNL1        0.2369
     17 N         139.1963  141.4016  161.1052 N.ar    1  UNL1       -0.1928
     18 C         140.6643  141.1483  160.9307 C.ar    1  UNL1        0.2023
     19 N         141.3987  141.9445  161.9683 N.ar    1  UNL1       -0.0586
     20 O         140.3845  142.6900  162.7841 O.2     1  UNL1       -0.3373
     21 C         140.9724  139.2449  160.9622 C.ar    1  UNL1        0.0423
     22 C         139.8142  138.2917  160.9558 C.ar    1  UNL1        0.1194
     23 N         139.8851  137.4679  162.2075 N.ar    1  UNL1       -0.1679
     24 N         141.0870  137.9120  162.9873 N.ar    1  UNL1       -0.2476
     25 C         141.5377  137.3556  164.3053 C.3     1  UNL1        0.1537
     26 C         141.7590  139.0103  162.2177 C.ar    1  UNL1        0.0944
     27 C         142.9311  137.8445  157.2089 C.ar    1  UNL1        0.1319
     28 N         142.6357  136.4353  157.6293 N.ar    1  UNL1       -0.2282
     29 C         143.3532  135.5114  156.6904 C.ar    1  UNL1        0.1171
     30 C         144.0921  136.3496  155.6897 C.ar    1  UNL1        0.0942
     31 N         143.8311  137.7916  156.0101 N.ar    1  UNL1       -0.3385
     32 H         144.1880  138.5671  155.5198 H       1  UNL1        0.1672
     33 C         143.3351  134.0124  156.7430 C.ar    1  UNL1        0.1006
     34 C         144.3768  133.2770  157.5329 C.ar    1  UNL1        0.0230
     35 C         144.3587  131.7781  157.5855 C.ar    1  UNL1        0.0328
     36 C         143.2989  131.0145  156.8482 C.ar    1  UNL1        0.1592
     37 F         143.2807  129.5155  156.9008 F       1  UNL1       -0.2025
     38 C         142.2571  131.7499  156.0583 C.ar    1  UNL1        0.1284
     39 N         142.2752  133.2488  156.0057 N.ar    1  UNL1       -0.2399
@<TRIPOS>BOND
     1    15    16    1
     2    16    17   ar
     3    17    18   ar
     4     1    18    1
     5     1    21    1
     6    21    22   ar
     7    22    23   ar
     8    23    24   ar
     9    24    25    1
    10    24    26   ar
    11     1     2    1
    12     2     3    1
    13     3    27    1
    14    27    28   ar
    15    28    29   ar
    16    29    33    1
    17    33    34   ar
    18    34    35   ar
    19    35    36   ar
    20    36    37    1
    21    36    38   ar
    22    38    39   ar
    23    29    30   ar
    24    30    31   ar
    25     3     4    1
    26     4     5    1
    27     5     6    2
    28     6     7    1
    29     7     8    2
    30     8     9    1
    31     9    10    1
    32    10    11    2
    33    11    12    1
    34    12    13    2
    35    18    19   ar
    36    19    20   ar
    37    20    16   ar
    38     6     1    1
    39    13     8    1
    40    26    21   ar
    41    31    27   ar
    42    13     5    1
    43    39    33   ar
    44     2    14    1
    45    31    32    1
