@<TRIPOS>MOLECULE
*****
 27 30 0 0 0
SMALL
GASTEIGER

@<TRIPOS>ATOM
      1 C         140.7693  142.0289  167.3067 C.3     1  UNL1        0.1686
      2 C         142.1129  141.3635  167.3486 C.3     1  UNL1        0.0595
      3 C         143.0509  141.6386  168.4863 C.3     1  UNL1        0.0614
      4 C         143.6310  142.1867  169.7564 C.3     1  UNL1        0.0175
      5 C         142.6210  143.1139  170.3649 C.3     1  UNL1        0.0175
      6 C         141.4168  143.1388  169.4709 C.3     1  UNL1        0.0614
      7 C         140.3636  142.9694  168.4026 C.3     1  UNL1        0.0595
      8 N         141.6825  142.2270  168.3099 N.3     1  UNL1       -0.2713
      9 O         139.8312  141.7538  166.1690 O.3     1  UNL1       -0.4791
     10 C         139.2909  138.2977  164.2946 C.ar    1  UNL1        0.0561
     11 C         138.4996  137.5402  165.3193 C.ar    1  UNL1        0.0047
     12 C         138.1523  138.1872  166.6273 C.ar    1  UNL1        0.0033
     13 C         138.5961  139.5917  166.9105 C.ar    1  UNL1        0.0369
     14 C         139.3873  140.3492  165.8857 C.ar    1  UNL1        0.1385
     15 C         139.7347  139.7023  164.5778 C.ar    1  UNL1        0.0414
     16 N         138.6572  137.6784  161.8523 N.am    1  UNL1       -0.3253
     17 C         139.6382  137.6507  162.9867 C.2     1  UNL1        0.2428
     18 O         140.9666  136.9759  162.8131 O.2     1  UNL1       -0.2704
     19 H         138.8852  137.2538  160.9938 H       1  UNL1        0.1453
     20 H         137.7854  138.1213  161.9661 H       1  UNL1        0.1453
     21 C         140.7445  141.9519  167.1721 C.3     1  UNL1        0.0991
     22 C         140.5872  142.9570  166.0699 C.ar    1  UNL1       -0.0061
     23 C         139.3271  143.7639  165.9648 C.ar    1  UNL1       -0.0029
     24 C         139.1699  144.7690  164.8626 C.ar    1  UNL1       -0.0003
     25 C         140.2728  144.9672  163.8654 C.ar    1  UNL1       -0.0000
     26 C         141.5330  144.1603  163.9704 C.ar    1  UNL1       -0.0003
     27 C         141.6901  143.1552  165.0727 C.ar    1  UNL1       -0.0029
@<TRIPOS>BOND
     1    16    17   am
     2    17    18    2
     3    17    10    1
     4    10    11   ar
     5    11    12   ar
     6    12    13   ar
     7    13    14   ar
     8    14     9    1
     9     1     9    1
    10     1     2    1
    11     3     2    1
    12     3     4    1
    13     4     5    1
    14     6     5    1
    15     6     7    1
    16     6     8    1
    17     8    21    1
    18    21    22    1
    19    22    23   ar
    20    23    24   ar
    21    24    25   ar
    22    25    26   ar
    23    26    27   ar
    24    14    15   ar
    25    15    10   ar
    26     7     1    1
    27    27    22   ar
    28     8     3    1
    29    16    19    1
    30    16    20    1
@<TRIPOS>MOLECULE
*****
 27 30 0 0 0
SMALL
GASTEIGER

@<TRIPOS>ATOM
      1 C         141.5994  142.3156  165.8728 C.3     1  UNL1        0.1686
      2 C         140.5021  143.1833  165.3313 C.3     1  UNL1        0.0595
      3 C         140.8274  144.3005  164.3848 C.3     1  UNL1        0.0614
      4 C         141.5863  145.2529  163.5089 C.3     1  UNL1        0.0175
      5 C         143.0411  144.8960  163.5877 C.3     1  UNL1        0.0175
      6 C         143.1814  143.7231  164.5122 C.3     1  UNL1        0.0614
      7 C         143.0219  142.5652  165.4677 C.3     1  UNL1        0.0595
      8 N         141.8132  143.3551  165.0049 N.3     1  UNL1       -0.2713
      9 O         141.2741  141.1983  166.8193 O.3     1  UNL1       -0.4791
     10 C         139.5341  138.3257  164.7051 C.ar    1  UNL1        0.0561
     11 C         138.3748  137.9828  165.5930 C.ar    1  UNL1        0.0047
     12 C         138.1819  138.7118  166.8897 C.ar    1  UNL1        0.0033
     13 C         139.1483  139.7836  167.2985 C.ar    1  UNL1        0.0369
     14 C         140.3077  140.1265  166.4106 C.ar    1  UNL1        0.1385
     15 C         140.5006  139.3975  165.1139 C.ar    1  UNL1        0.0414
     16 N         138.6279  137.5782  162.3878 N.am    1  UNL1       -0.3253
     17 C         139.7269  137.5967  163.4084 C.2     1  UNL1        0.2428
     18 O         141.0189  136.8862  163.1324 O.2     1  UNL1       -0.2704
     19 H         138.7545  137.0997  161.5367 H       1  UNL1        0.1453
     20 H         137.7799  138.0445  162.5689 H       1  UNL1        0.1453
     21 C         141.4879  142.2379  165.9514 C.3     1  UNL1        0.0991
     22 C         141.7387  142.4030  167.4210 C.ar    1  UNL1       -0.0061
     23 C         143.0424  141.9574  168.0141 C.ar    1  UNL1       -0.0029
     24 C         143.2932  142.1224  169.4837 C.ar    1  UNL1       -0.0003
     25 C         142.2403  142.7331  170.3603 C.ar    1  UNL1       -0.0000
     26 C         140.9365  143.1788  169.7672 C.ar    1  UNL1       -0.0003
     27 C         140.6858  143.0136  168.2975 C.ar    1  UNL1       -0.0029
@<TRIPOS>BOND
     1    16    17   am
     2    17    18    2
     3    17    10    1
     4    10    11   ar
     5    11    12   ar
     6    12    13   ar
     7    13    14   ar
     8    14     9    1
     9     1     9    1
    10     1     2    1
    11     3     2    1
    12     3     4    1
    13     4     5    1
    14     6     5    1
    15     6     7    1
    16     6     8    1
    17     8    21    1
    18    21    22    1
    19    22    23   ar
    20    23    24   ar
    21    24    25   ar
    22    25    26   ar
    23    26    27   ar
    24    14    15   ar
    25    15    10   ar
    26     7     1    1
    27    27    22   ar
    28     8     3    1
    29    16    19    1
    30    16    20    1
@<TRIPOS>MOLECULE
*****
 27 30 0 0 0
SMALL
GASTEIGER

@<TRIPOS>ATOM
      1 C         142.0411  141.8763  164.9960 C.3     1  UNL1        0.1686
      2 C         142.4610  140.5041  164.5594 C.3     1  UNL1        0.0595
      3 C         143.8624  140.2655  164.0805 C.3     1  UNL1        0.0614
      4 C         145.2953  140.4856  163.6955 C.3     1  UNL1        0.0175
      5 C         145.6195  141.9323  163.9233 C.3     1  UNL1        0.0175
      6 C         144.3869  142.6064  164.4491 C.3     1  UNL1        0.0614
      7 C         143.0225  143.0099  164.9539 C.3     1  UNL1        0.0595
      8 N         143.3009  141.5762  164.5463 N.3     1  UNL1       -0.2713
      9 O         140.6397  142.1149  165.4749 O.3     1  UNL1       -0.4791
     10 C         139.9872  142.0619  169.3891 C.ar    1  UNL1        0.0561
     11 C         139.3852  140.6984  169.5577 C.ar    1  UNL1        0.0047
     12 C         139.2014  139.8071  168.3653 C.ar    1  UNL1        0.0033
     13 C         139.6196  140.2792  167.0045 C.ar    1  UNL1        0.0369
     14 C         140.2215  141.6428  166.8358 C.ar    1  UNL1        0.1385
     15 C         140.4053  142.5341  168.0281 C.ar    1  UNL1        0.0414
     16 N         140.1200  144.4436  170.4188 N.am    1  UNL1       -0.3253
     17 C         140.1710  142.9533  170.5814 C.2     1  UNL1        0.2428
     18 O         140.4057  142.3543  171.9366 O.2     1  UNL1       -0.2704
     19 H         140.2407  145.0286  171.2014 H       1  UNL1        0.1453
     20 H         139.9660  144.8367  169.5294 H       1  UNL1        0.1453
     21 C         141.8996  141.8148  165.0251 C.3     1  UNL1        0.0991
     22 C         140.9503  142.6250  164.1929 C.ar    1  UNL1       -0.0061
     23 C         140.6591  144.0498  164.5603 C.ar    1  UNL1       -0.0029
     24 C         139.7099  144.8599  163.7281 C.ar    1  UNL1       -0.0003
     25 C         139.0519  144.2453  162.5285 C.ar    1  UNL1       -0.0000
     26 C         139.3431  142.8204  162.1610 C.ar    1  UNL1       -0.0003
     27 C         140.2923  142.0103  162.9933 C.ar    1  UNL1       -0.0029
@<TRIPOS>BOND
     1    16    17   am
     2    17    18    2
     3    17    10    1
     4    10    11   ar
     5    11    12   ar
     6    12    13   ar
     7    13    14   ar
     8    14     9    1
     9     1     9    1
    10     1     2    1
    11     3     2    1
    12     3     4    1
    13     4     5    1
    14     6     5    1
    15     6     7    1
    16     6     8    1
    17     8    21    1
    18    21    22    1
    19    22    23   ar
    20    23    24   ar
    21    24    25   ar
    22    25    26   ar
    23    26    27   ar
    24    14    15   ar
    25    15    10   ar
    26     7     1    1
    27    27    22   ar
    28     8     3    1
    29    16    19    1
    30    16    20    1
@<TRIPOS>MOLECULE
*****
 27 30 0 0 0
SMALL
GASTEIGER

@<TRIPOS>ATOM
      1 C         140.2445  141.8181  165.9123 C.3     1  UNL1        0.1686
      2 C         139.3190  140.8987  165.1719 C.3     1  UNL1        0.0595
      3 C         138.2413  141.4655  164.2960 C.3     1  UNL1        0.0614
      4 C         137.3541  142.4336  163.5709 C.3     1  UNL1        0.0175
      5 C         137.8006  143.8223  163.9202 C.3     1  UNL1        0.0175
      6 C         138.9636  143.7125  164.8612 C.3     1  UNL1        0.0614
      7 C         140.0922  143.3042  165.7769 C.3     1  UNL1        0.0595
      8 N         139.2359  142.2559  165.0934 N.3     1  UNL1       -0.2713
      9 O         141.3224  141.2513  166.7883 O.3     1  UNL1       -0.4791
     10 C         144.3707  140.2952  164.4339 C.ar    1  UNL1        0.0561
     11 C         144.7205  138.9353  164.9613 C.ar    1  UNL1        0.0047
     12 C         143.9376  138.3473  166.0977 C.ar    1  UNL1        0.0033
     13 C         142.8049  139.1193  166.7066 C.ar    1  UNL1        0.0369
     14 C         142.4551  140.4793  166.1792 C.ar    1  UNL1        0.1385
     15 C         143.2380  141.0672  165.0429 C.ar    1  UNL1        0.0414
     16 N         146.2438  141.8762  163.5723 N.am    1  UNL1       -0.3253
     17 C         145.1537  140.8831  163.2975 C.2     1  UNL1        0.2428
     18 O         144.8465  140.4779  161.8862 O.2     1  UNL1       -0.2704
     19 H         146.7576  142.2620  162.8265 H       1  UNL1        0.1453
     20 H         146.4454  142.1421  164.4985 H       1  UNL1        0.1453
     21 C         140.3137  141.6891  165.9693 C.3     1  UNL1        0.0991
     22 C         140.1588  141.7148  167.4611 C.ar    1  UNL1       -0.0061
     23 C         140.6002  142.9181  168.2403 C.ar    1  UNL1       -0.0029
     24 C         140.4453  142.9438  169.7320 C.ar    1  UNL1       -0.0003
     25 C         139.8489  141.7663  170.4445 C.ar    1  UNL1       -0.0000
     26 C         139.4074  140.5629  169.6653 C.ar    1  UNL1       -0.0003
     27 C         139.5624  140.5373  168.1735 C.ar    1  UNL1       -0.0029
@<TRIPOS>BOND
     1    16    17   am
     2    17    18    2
     3    17    10    1
     4    10    11   ar
     5    11    12   ar
     6    12    13   ar
     7    13    14   ar
     8    14     9    1
     9     1     9    1
    10     1     2    1
    11     3     2    1
    12     3     4    1
    13     4     5    1
    14     6     5    1
    15     6     7    1
    16     6     8    1
    17     8    21    1
    18    21    22    1
    19    22    23   ar
    20    23    24   ar
    21    24    25   ar
    22    25    26   ar
    23    26    27   ar
    24    14    15   ar
    25    15    10   ar
    26     7     1    1
    27    27    22   ar
    28     8     3    1
    29    16    19    1
    30    16    20    1
@<TRIPOS>MOLECULE
*****
 27 30 0 0 0
SMALL
GASTEIGER

@<TRIPOS>ATOM
      1 C         140.4615  141.6565  166.6232 C.3     1  UNL1        0.1686
      2 C         139.8606  140.3489  167.0464 C.3     1  UNL1        0.0595
      3 C         139.4703  140.1315  168.4783 C.3     1  UNL1        0.0614
      4 C         139.2438  140.3524  169.9446 C.3     1  UNL1        0.0175
      5 C         139.7123  141.7367  170.2825 C.3     1  UNL1        0.0175
      6 C         140.2283  142.3713  169.0251 C.3     1  UNL1        0.0614
      7 C         140.6721  142.7466  167.6318 C.3     1  UNL1        0.0595
      8 N         140.0787  141.3792  167.9101 N.3     1  UNL1       -0.2713
      9 O         140.8518  141.8740  165.1912 O.3     1  UNL1       -0.4791
     10 C         143.1838  139.3327  163.2282 C.ar    1  UNL1        0.0561
     11 C         144.5396  139.8941  163.5388 C.ar    1  UNL1        0.0047
     12 C         144.6661  141.1155  164.4003 C.ar    1  UNL1        0.0033
     13 C         143.4369  141.7755  164.9510 C.ar    1  UNL1        0.0369
     14 C         142.0811  141.2140  164.6404 C.ar    1  UNL1        0.1385
     15 C         141.9545  139.9927  163.7790 C.ar    1  UNL1        0.0414
     16 N         141.8243  137.2608  162.4477 N.am    1  UNL1       -0.3253
     17 C         143.0572  138.1113  162.3667 C.2     1  UNL1        0.2428
     18 O         144.1637  137.7403  161.4242 O.2     1  UNL1       -0.2704
     19 H         141.7412  136.4591  161.8823 H       1  UNL1        0.1453
     20 H         141.0981  137.5042  163.0663 H       1  UNL1        0.1453
     21 C         140.4691  141.5967  166.4781 C.3     1  UNL1        0.0991
     22 C         139.5954  142.4207  165.5794 C.ar    1  UNL1       -0.0061
     23 C         138.4803  141.7705  164.8155 C.ar    1  UNL1       -0.0029
     24 C         137.6067  142.5945  163.9168 C.ar    1  UNL1       -0.0003
     25 C         137.8481  144.0688  163.7821 C.ar    1  UNL1       -0.0000
     26 C         138.9633  144.7191  164.5461 C.ar    1  UNL1       -0.0003
     27 C         139.8369  143.8950  165.4448 C.ar    1  UNL1       -0.0029
@<TRIPOS>BOND
     1    16    17   am
     2    17    18    2
     3    17    10    1
     4    10    11   ar
     5    11    12   ar
     6    12    13   ar
     7    13    14   ar
     8    14     9    1
     9     1     9    1
    10     1     2    1
    11     3     2    1
    12     3     4    1
    13     4     5    1
    14     6     5    1
    15     6     7    1
    16     6     8    1
    17     8    21    1
    18    21    22    1
    19    22    23   ar
    20    23    24   ar
    21    24    25   ar
    22    25    26   ar
    23    26    27   ar
    24    14    15   ar
    25    15    10   ar
    26     7     1    1
    27    27    22   ar
    28     8     3    1
    29    16    19    1
    30    16    20    1
@<TRIPOS>MOLECULE
*****
 27 30 0 0 0
SMALL
GASTEIGER

@<TRIPOS>ATOM
      1 C         140.0797  140.8049  165.1118 C.3     1  UNL1        0.1686
      2 C         139.0577  139.7899  165.5306 C.3     1  UNL1        0.0595
      3 C         138.8327  138.5639  164.6961 C.3     1  UNL1        0.0614
      4 C         138.9432  137.5413  163.6043 C.3     1  UNL1        0.0175
      5 C         139.9934  138.0055  162.6391 C.3     1  UNL1        0.0175
      6 C         140.5319  139.3149  163.1344 C.3     1  UNL1        0.0614
      7 C         140.8767  140.5938  163.8587 C.3     1  UNL1        0.0595
      8 N         139.8146  139.6601  164.4057 N.3     1  UNL1       -0.2713
      9 O         140.3048  142.0310  165.9462 O.3     1  UNL1       -0.4791
     10 C         141.2387  141.4703  169.7624 C.ar    1  UNL1        0.0561
     11 C         142.7102  141.7604  169.7397 C.ar    1  UNL1        0.0047
     12 C         143.3799  142.1407  168.4525 C.ar    1  UNL1        0.0033
     13 C         142.5781  142.2309  167.1881 C.ar    1  UNL1        0.0369
     14 C         141.1066  141.9408  167.2108 C.ar    1  UNL1        0.1385
     15 C         140.4369  141.5605  168.4979 C.ar    1  UNL1        0.0414
     16 N         140.0428  139.6981  171.2386 N.am    1  UNL1       -0.3253
     17 C         140.5690  141.0900  171.0496 C.2     1  UNL1        0.2428
     18 O         140.4256  142.1016  172.1479 O.2     1  UNL1       -0.2704
     19 H         139.6033  139.4485  172.0834 H       1  UNL1        0.1453
     20 H         140.1369  139.0342  170.5178 H       1  UNL1        0.1453
     21 C         140.0396  140.8861  165.2401 C.3     1  UNL1        0.0991
     22 C         139.6560  142.2355  164.7092 C.ar    1  UNL1       -0.0061
     23 C         140.7136  143.1702  164.2015 C.ar    1  UNL1       -0.0029
     24 C         140.3300  144.5195  163.6706 C.ar    1  UNL1       -0.0003
     25 C         138.8887  144.9343  163.6473 C.ar    1  UNL1       -0.0000
     26 C         137.8309  143.9996  164.1549 C.ar    1  UNL1       -0.0003
     27 C         138.2147  142.6502  164.6859 C.ar    1  UNL1       -0.0029
@<TRIPOS>BOND
     1    16    17   am
     2    17    18    2
     3    17    10    1
     4    10    11   ar
     5    11    12   ar
     6    12    13   ar
     7    13    14   ar
     8    14     9    1
     9     1     9    1
    10     1     2    1
    11     3     2    1
    12     3     4    1
    13     4     5    1
    14     6     5    1
    15     6     7    1
    16     6     8    1
    17     8    21    1
    18    21    22    1
    19    22    23   ar
    20    23    24   ar
    21    24    25   ar
    22    25    26   ar
    23    26    27   ar
    24    14    15   ar
    25    15    10   ar
    26     7     1    1
    27    27    22   ar
    28     8     3    1
    29    16    19    1
    30    16    20    1
@<TRIPOS>MOLECULE
*****
 27 30 0 0 0
SMALL
GASTEIGER

@<TRIPOS>ATOM
      1 C         142.3966  141.5369  165.8635 C.3     1  UNL1        0.1686
      2 C         143.3403  142.5727  165.3283 C.3     1  UNL1        0.0595
      3 C         144.5638  142.1519  164.5694 C.3     1  UNL1        0.0614
      4 C         145.6089  141.3071  163.9030 C.3     1  UNL1        0.0175
      5 C         145.2255  139.8681  164.0828 C.3     1  UNL1        0.0175
      6 C         143.9434  139.8236  164.8602 C.3     1  UNL1        0.0614
      7 C         142.6763  140.0803  165.6397 C.3     1  UNL1        0.0595
      8 N         143.5345  141.2351  165.1609 N.3     1  UNL1       -0.2713
      9 O         141.1731  141.9577  166.6225 O.3     1  UNL1       -0.4791
     10 C         138.3064  142.8694  164.0340 C.ar    1  UNL1        0.0561
     11 C         137.8963  144.2241  164.5306 C.ar    1  UNL1        0.0047
     12 C         138.5785  144.8233  165.7246 C.ar    1  UNL1        0.0033
     13 C         139.6707  144.0678  166.4219 C.ar    1  UNL1        0.0369
     14 C         140.0808  142.7132  165.9252 C.ar    1  UNL1        0.1385
     15 C         139.3987  142.1139  164.7313 C.ar    1  UNL1        0.0414
     16 N         136.9316  140.9449  162.9586 N.am    1  UNL1       -0.3253
     17 C         137.6242  142.2702  162.8400 C.2     1  UNL1        0.2428
     18 O         137.6346  142.9963  161.5274 O.2     1  UNL1       -0.2704
     19 H         136.4838  140.5517  162.1749 H       1  UNL1        0.1453
     20 H         136.9248  140.4684  163.8200 H       1  UNL1        0.1453
     21 C         142.3110  141.6559  165.9199 C.3     1  UNL1        0.0991
     22 C         142.2155  141.3935  167.3937 C.ar    1  UNL1       -0.0061
     23 C         142.9844  142.2463  168.3587 C.ar    1  UNL1       -0.0029
     24 C         142.8889  141.9839  169.8324 C.ar    1  UNL1       -0.0003
     25 C         142.0244  140.8687  170.3412 C.ar    1  UNL1       -0.0000
     26 C         141.2554  140.0158  169.3761 C.ar    1  UNL1       -0.0003
     27 C         141.3510  140.2782  167.9024 C.ar    1  UNL1       -0.0029
@<TRIPOS>BOND
     1    16    17   am
     2    17    18    2
     3    17    10    1
     4    10    11   ar
     5    11    12   ar
     6    12    13   ar
     7    13    14   ar
     8    14     9    1
     9     1     9    1
    10     1     2    1
    11     3     2    1
    12     3     4    1
    13     4     5    1
    14     6     5    1
    15     6     7    1
    16     6     8    1
    17     8    21    1
    18    21    22    1
    19    22    23   ar
    20    23    24   ar
    21    24    25   ar
    22    25    26   ar
    23    26    27   ar
    24    14    15   ar
    25    15    10   ar
    26     7     1    1
    27    27    22   ar
    28     8     3    1
    29    16    19    1
    30    16    20    1
@<TRIPOS>MOLECULE
*****
 27 30 0 0 0
SMALL
GASTEIGER

@<TRIPOS>ATOM
      1 C         140.9575  140.8737  167.4421 C.3     1  UNL1        0.1686
      2 C         140.3461  141.5870  168.6114 C.3     1  UNL1        0.0595
      3 C         140.9169  141.4002  169.9859 C.3     1  UNL1        0.0614
      4 C         141.7798  140.9347  171.1211 C.3     1  UNL1        0.0175
      5 C         142.8153  140.0032  170.5645 C.3     1  UNL1        0.0175
      6 C         142.5925  139.8930  169.0852 C.3     1  UNL1        0.0614
      7 C         142.1398  139.9736  167.6473 C.3     1  UNL1        0.0595
      8 N         141.4192  140.7564  168.7276 N.3     1  UNL1       -0.2713
      9 O         140.3867  141.0605  166.0675 O.3     1  UNL1       -0.4791
     10 C         142.1744  143.8485  163.8809 C.ar    1  UNL1        0.0561
     11 C         141.1065  144.9008  163.8351 C.ar    1  UNL1        0.0047
     12 C         139.7987  144.6730  164.5335 C.ar    1  UNL1        0.0033
     13 C         139.5588  143.3930  165.2775 C.ar    1  UNL1        0.0369
     14 C         140.6267  142.3406  165.3233 C.ar    1  UNL1        0.1385
     15 C         141.9345  142.5683  164.6251 C.ar    1  UNL1        0.0414
     16 N         143.8797  145.4619  162.7679 N.am    1  UNL1       -0.3253
     17 C         143.4822  144.0763  163.1826 C.2     1  UNL1        0.2428
     18 O         144.3927  142.9183  162.8990 O.2     1  UNL1       -0.2704
     19 H         144.7381  145.6114  162.3095 H       1  UNL1        0.1453
     20 H         143.2821  146.2219  162.9540 H       1  UNL1        0.1453
     21 C         140.8484  140.9432  167.3531 C.3     1  UNL1        0.0991
     22 C         140.1263  139.8133  166.6809 C.ar    1  UNL1       -0.0061
     23 C         138.7207  139.4771  167.0823 C.ar    1  UNL1       -0.0029
     24 C         137.9986  138.3472  166.4102 C.ar    1  UNL1       -0.0003
     25 C         138.6822  137.5534  165.3365 C.ar    1  UNL1       -0.0000
     26 C         140.0879  137.8896  164.9351 C.ar    1  UNL1       -0.0003
     27 C         140.8099  139.0196  165.6073 C.ar    1  UNL1       -0.0029
@<TRIPOS>BOND
     1    16    17   am
     2    17    18    2
     3    17    10    1
     4    10    11   ar
     5    11    12   ar
     6    12    13   ar
     7    13    14   ar
     8    14     9    1
     9     1     9    1
    10     1     2    1
    11     3     2    1
    12     3     4    1
    13     4     5    1
    14     6     5    1
    15     6     7    1
    16     6     8    1
    17     8    21    1
    18    21    22    1
    19    22    23   ar
    20    23    24   ar
    21    24    25   ar
    22    25    26   ar
    23    26    27   ar
    24    14    15   ar
    25    15    10   ar
    26     7     1    1
    27    27    22   ar
    28     8     3    1
    29    16    19    1
    30    16    20    1
@<TRIPOS>MOLECULE
*****
 27 30 0 0 0
SMALL
GASTEIGER

@<TRIPOS>ATOM
      1 C         141.8028  140.4427  165.3949 C.3     1  UNL1        0.1686
      2 C         142.5463  141.5979  164.7926 C.3     1  UNL1        0.0595
      3 C         143.9587  141.4168  164.3210 C.3     1  UNL1        0.0614
      4 C         145.2886  140.8001  164.0031 C.3     1  UNL1        0.0175
      5 C         145.2454  139.3617  164.4263 C.3     1  UNL1        0.0175
      6 C         143.8889  139.0894  165.0056 C.3     1  UNL1        0.0614
      7 C         142.4716  139.1065  165.5255 C.3     1  UNL1        0.0595
      8 N         143.0936  140.3595  164.9405 N.3     1  UNL1       -0.2713
      9 O         140.3904  140.6238  165.8666 O.3     1  UNL1       -0.4791
     10 C         140.3819  142.4422  169.3941 C.ar    1  UNL1        0.0561
     11 C         139.5600  141.4845  170.2047 C.ar    1  UNL1        0.0047
     12 C         139.0149  140.2399  169.5693 C.ar    1  UNL1        0.0033
     13 C         139.2917  139.9530  168.1233 C.ar    1  UNL1        0.0369
     14 C         140.1136  140.9107  167.3127 C.ar    1  UNL1        0.1385
     15 C         140.6587  142.1553  167.9480 C.ar    1  UNL1        0.0414
     16 N         142.3587  143.7366  170.4744 N.am    1  UNL1       -0.3253
     17 C         140.9270  143.6868  170.0295 C.2     1  UNL1        0.2428
     18 O         140.0405  144.8818  170.2200 O.2     1  UNL1       -0.2704
     19 H         142.7164  144.5535  170.8914 H       1  UNL1        0.1453
     20 H         142.9405  142.9523  170.3493 H       1  UNL1        0.1453
     21 C         141.6812  140.5406  165.4122 C.3     1  UNL1        0.0991
     22 C         140.5442  139.9872  164.6054 C.ar    1  UNL1       -0.0061
     23 C         140.1419  138.5508  164.7633 C.ar    1  UNL1       -0.0029
     24 C         139.0050  137.9974  163.9566 C.ar    1  UNL1       -0.0003
     25 C         138.2703  138.8803  162.9918 C.ar    1  UNL1       -0.0000
     26 C         138.6727  140.3167  162.8338 C.ar    1  UNL1       -0.0003
     27 C         139.8097  140.8701  163.6406 C.ar    1  UNL1       -0.0029
@<TRIPOS>BOND
     1    16    17   am
     2    17    18    2
     3    17    10    1
     4    10    11   ar
     5    11    12   ar
     6    12    13   ar
     7    13    14   ar
     8    14     9    1
     9     1     9    1
    10     1     2    1
    11     3     2    1
    12     3     4    1
    13     4     5    1
    14     6     5    1
    15     6     7    1
    16     6     8    1
    17     8    21    1
    18    21    22    1
    19    22    23   ar
    20    23    24   ar
    21    24    25   ar
    22    25    26   ar
    23    26    27   ar
    24    14    15   ar
    25    15    10   ar
    26     7     1    1
    27    27    22   ar
    28     8     3    1
    29    16    19    1
    30    16    20    1
