@<TRIPOS>MOLECULE
*****
 27 30 0 0 0
SMALL
GASTEIGER

@<TRIPOS>ATOM
      1 N         140.7454  142.2299  166.0068 N.ar    1  UNL1       -0.2189
      2 N         141.4703  140.9991  165.5487 N.ar    1  UNL1       -0.1709
      3 C         142.0785  140.0685  166.5556 C.ar    1  UNL1        0.0832
      4 C         141.9618  140.3685  168.0207 C.ar    1  UNL1        0.0202
      5 C         142.5700  139.4378  169.0276 C.ar    1  UNL1        0.0014
      6 C         142.4533  139.7378  170.4926 C.ar    1  UNL1        0.0000
      7 C         141.7284  140.9685  170.9507 C.ar    1  UNL1        0.0002
      8 C         141.1202  141.8992  169.9438 C.ar    1  UNL1        0.0048
      9 C         141.2369  141.5992  168.4788 C.ar    1  UNL1        0.0588
     10 C         140.6287  142.5299  167.4718 C.ar    1  UNL1        0.2762
     11 O         139.9038  143.7606  167.9299 O.2     1  UNL1       -0.2655
     12 C         139.5245  146.5664  161.6096 C.3     1  UNL1        0.0896
     13 N         139.4836  145.4823  162.6456 N.3     1  UNL1       -0.2714
     14 C         138.1265  144.9164  162.9422 C.3     1  UNL1        0.0722
     15 C         137.7558  143.8360  163.9144 C.3     1  UNL1        0.0193
     16 C         138.6507  143.0545  164.8302 C.3     1  UNL1        0.0259
     17 C         140.1372  143.1606  164.9998 C.3     1  UNL1        0.1098
     18 C         141.0961  144.0742  164.2957 C.3     1  UNL1        0.0418
     19 C         140.8053  145.1075  163.2480 C.3     1  UNL1        0.0741
     20 C         142.8034  138.8378  166.0975 C.3     1  UNL1        0.0738
     21 C         142.8573  138.4989  164.6373 C.ar    1  UNL1       -0.0161
     22 C         141.7344  137.7328  164.0031 C.ar    1  UNL1       -0.0030
     23 C         141.7883  137.3940  162.5429 C.ar    1  UNL1        0.0111
     24 C         142.9651  137.8213  161.7168 C.ar    1  UNL1        0.0577
     25 CL        143.0190  137.4824  160.2566 Cl      1  UNL1       -0.0822
     26 C         144.0880  138.5874  162.3508 C.ar    1  UNL1        0.0111
     27 C         144.0342  138.9262  163.8111 C.ar    1  UNL1       -0.0030
@<TRIPOS>BOND
     1    12    13    1
     2    13    14    1
     3    14    15    1
     4    15    16    1
     5    16    17    1
     6    17     1    1
     7     1     2   ar
     8     2     3   ar
     9     3    20    1
    10    20    21    1
    11    21    22   ar
    12    22    23   ar
    13    23    24   ar
    14    24    25    1
    15    24    26   ar
    16    26    27   ar
    17     3     4   ar
    18     4     5   ar
    19     5     6   ar
    20     6     7   ar
    21     7     8   ar
    22     8     9   ar
    23     9    10   ar
    24    10    11    2
    25    17    18    1
    26    18    19    1
    27    19    13    1
    28    10     1   ar
    29    27    21   ar
    30     9     4   ar
@<TRIPOS>MOLECULE
*****
 27 30 0 0 0
SMALL
GASTEIGER

@<TRIPOS>ATOM
      1 N         140.7356  139.8157  162.9470 N.ar    1  UNL1       -0.2189
      2 N         140.6711  141.0623  163.7787 N.ar    1  UNL1       -0.1709
      3 C         139.9179  141.0603  165.0759 C.ar    1  UNL1        0.0832
      4 C         139.2292  139.8117  165.5414 C.ar    1  UNL1        0.0202
      5 C         138.4760  139.8097  166.8385 C.ar    1  UNL1        0.0014
      6 C         137.7874  138.5611  167.3040 C.ar    1  UNL1        0.0000
      7 C         137.8519  137.3144  166.4723 C.ar    1  UNL1        0.0002
      8 C         138.6051  137.3164  165.1751 C.ar    1  UNL1        0.0048
      9 C         139.2937  138.5650  164.7097 C.ar    1  UNL1        0.0588
     10 C         140.0470  138.5671  163.4124 C.ar    1  UNL1        0.2762
     11 O         140.1115  137.3204  162.5807 O.2     1  UNL1       -0.2655
     12 C         142.6547  140.2188  156.9649 C.3     1  UNL1        0.0896
     13 N         142.5163  140.0336  158.4470 N.3     1  UNL1       -0.2714
     14 C         143.7612  139.6109  159.1691 C.3     1  UNL1        0.0722
     15 C         143.9485  139.3457  160.6336 C.3     1  UNL1        0.0193
     16 C         142.9372  139.4378  161.7376 C.3     1  UNL1        0.0259
     17 C         141.4888  139.8177  161.6498 C.3     1  UNL1        0.1098
     18 C         140.6940  140.1995  160.4363 C.3     1  UNL1        0.0418
     19 C         141.1512  140.2955  159.0109 C.3     1  UNL1        0.0741
     20 C         139.8534  142.3069  165.9076 C.3     1  UNL1        0.0738
     21 C         140.7617  142.4672  167.0905 C.ar    1  UNL1       -0.0161
     22 C         142.2071  142.0805  166.9840 C.ar    1  UNL1       -0.0030
     23 C         143.1155  142.2408  168.1669 C.ar    1  UNL1        0.0111
     24 C         142.5784  142.7877  169.4563 C.ar    1  UNL1        0.0577
     25 CL        143.4867  142.9480  170.6391 Cl      1  UNL1       -0.0822
     26 C         141.1331  143.1744  169.5627 C.ar    1  UNL1        0.0111
     27 C         140.2247  143.0141  168.3798 C.ar    1  UNL1       -0.0030
@<TRIPOS>BOND
     1    12    13    1
     2    13    14    1
     3    14    15    1
     4    15    16    1
     5    16    17    1
     6    17     1    1
     7     1     2   ar
     8     2     3   ar
     9     3    20    1
    10    20    21    1
    11    21    22   ar
    12    22    23   ar
    13    23    24   ar
    14    24    25    1
    15    24    26   ar
    16    26    27   ar
    17     3     4   ar
    18     4     5   ar
    19     5     6   ar
    20     6     7   ar
    21     7     8   ar
    22     8     9   ar
    23     9    10   ar
    24    10    11    2
    25    17    18    1
    26    18    19    1
    27    19    13    1
    28    10     1   ar
    29    27    21   ar
    30     9     4   ar
@<TRIPOS>MOLECULE
*****
 27 30 0 0 0
SMALL
GASTEIGER

@<TRIPOS>ATOM
      1 N         139.9328  139.9593  161.2481 N.ar    1  UNL1       -0.2189
      2 N         139.6844  139.2706  162.5573 N.ar    1  UNL1       -0.1709
      3 C         139.0787  140.0292  163.7008 C.ar    1  UNL1        0.0832
      4 C         138.7214  141.4766  163.5351 C.ar    1  UNL1        0.0202
      5 C         138.1157  142.2352  164.6786 C.ar    1  UNL1        0.0014
      6 C         137.7583  143.6825  164.5129 C.ar    1  UNL1        0.0000
      7 C         138.0067  144.3713  163.2037 C.ar    1  UNL1        0.0002
      8 C         138.6124  143.6127  162.0602 C.ar    1  UNL1        0.0048
      9 C         138.9698  142.1653  162.2259 C.ar    1  UNL1        0.0588
     10 C         139.5755  141.4066  161.0824 C.ar    1  UNL1        0.2762
     11 O         139.8239  142.0954  159.7732 O.2     1  UNL1       -0.2655
     12 C         141.1567  136.7882  155.9494 C.3     1  UNL1        0.0896
     13 N         141.1938  137.5028  157.2677 N.3     1  UNL1       -0.2714
     14 C         142.5370  137.5745  157.9316 C.3     1  UNL1        0.0722
     15 C         142.9009  138.2123  159.2396 C.3     1  UNL1        0.0193
     16 C         142.0115  138.9360  160.2067 C.3     1  UNL1        0.0259
     17 C         140.5386  139.2006  160.1046 C.3     1  UNL1        0.1098
     18 C         139.5912  138.8069  159.0103 C.3     1  UNL1        0.0418
     19 C         139.8828  138.0513  157.7478 C.3     1  UNL1        0.0741
     20 C         138.8303  139.3405  165.0100 C.3     1  UNL1        0.0738
     21 C         139.7975  139.5128  166.1435 C.ar    1  UNL1       -0.0161
     22 C         141.2673  139.3243  165.9105 C.ar    1  UNL1       -0.0030
     23 C         142.2345  139.4966  167.0439 C.ar    1  UNL1        0.0111
     24 C         141.7320  139.8575  168.4104 C.ar    1  UNL1        0.0577
     25 CL        142.6992  140.0298  169.5439 Cl      1  UNL1       -0.0822
     26 C         140.2623  140.0459  168.6434 C.ar    1  UNL1        0.0111
     27 C         139.2950  139.8736  167.5099 C.ar    1  UNL1       -0.0030
@<TRIPOS>BOND
     1    12    13    1
     2    13    14    1
     3    14    15    1
     4    15    16    1
     5    16    17    1
     6    17     1    1
     7     1     2   ar
     8     2     3   ar
     9     3    20    1
    10    20    21    1
    11    21    22   ar
    12    22    23   ar
    13    23    24   ar
    14    24    25    1
    15    24    26   ar
    16    26    27   ar
    17     3     4   ar
    18     4     5   ar
    19     5     6   ar
    20     6     7   ar
    21     7     8   ar
    22     8     9   ar
    23     9    10   ar
    24    10    11    2
    25    17    18    1
    26    18    19    1
    27    19    13    1
    28    10     1   ar
    29    27    21   ar
    30     9     4   ar
@<TRIPOS>MOLECULE
*****
 27 30 0 0 0
SMALL
GASTEIGER

@<TRIPOS>ATOM
      1 N         140.3551  141.7877  162.4422 N.ar    1  UNL1       -0.2189
      2 N         140.2629  142.5711  163.7181 N.ar    1  UNL1       -0.1709
      3 C         139.7865  141.9047  164.9746 C.ar    1  UNL1        0.0832
      4 C         139.4023  140.4548  164.9553 C.ar    1  UNL1        0.0202
      5 C         138.9260  139.7883  166.2118 C.ar    1  UNL1        0.0014
      6 C         138.5418  138.3385  166.1925 C.ar    1  UNL1        0.0000
      7 C         138.6341  137.5551  164.9166 C.ar    1  UNL1        0.0002
      8 C         139.1104  138.2216  163.6601 C.ar    1  UNL1        0.0048
      9 C         139.4946  139.6714  163.6795 C.ar    1  UNL1        0.0588
     10 C         139.9710  140.3379  162.4229 C.ar    1  UNL1        0.2762
     11 O         140.0632  139.5545  161.1470 O.2     1  UNL1       -0.2655
     12 C         140.9955  144.9324  157.0263 C.3     1  UNL1        0.0896
     13 N         141.1744  144.1379  158.2860 N.3     1  UNL1       -0.2714
     14 C         142.5756  143.6908  158.5801 C.3     1  UNL1        0.0722
     15 C         143.0769  142.8910  159.7459 C.3     1  UNL1        0.0193
     16 C         142.3007  142.3406  160.9055 C.3     1  UNL1        0.0259
     17 C         140.8315  142.4543  161.1857 C.3     1  UNL1        0.1098
     18 C         139.7757  143.1462  160.3755 C.3     1  UNL1        0.0418
     19 C         139.9282  143.8955  159.0851 C.3     1  UNL1        0.0741
     20 C         139.6943  142.6880  166.2505 C.3     1  UNL1        0.0738
     21 C         140.8193  142.6426  167.2415 C.ar    1  UNL1       -0.0161
     22 C         140.5799  143.0438  168.6669 C.ar    1  UNL1       -0.0030
     23 C         141.7050  142.9983  169.6579 C.ar    1  UNL1        0.0111
     24 C         143.0695  142.5517  169.2236 C.ar    1  UNL1        0.0577
     25 CL        144.1945  142.5062  170.2146 Cl      1  UNL1       -0.0822
     26 C         143.3089  142.1505  167.7982 C.ar    1  UNL1        0.0111
     27 C         142.1838  142.1959  166.8071 C.ar    1  UNL1       -0.0030
@<TRIPOS>BOND
     1    12    13    1
     2    13    14    1
     3    14    15    1
     4    15    16    1
     5    16    17    1
     6    17     1    1
     7     1     2   ar
     8     2     3   ar
     9     3    20    1
    10    20    21    1
    11    21    22   ar
    12    22    23   ar
    13    23    24   ar
    14    24    25    1
    15    24    26   ar
    16    26    27   ar
    17     3     4   ar
    18     4     5   ar
    19     5     6   ar
    20     6     7   ar
    21     7     8   ar
    22     8     9   ar
    23     9    10   ar
    24    10    11    2
    25    17    18    1
    26    18    19    1
    27    19    13    1
    28    10     1   ar
    29    27    21   ar
    30     9     4   ar
@<TRIPOS>MOLECULE
*****
 27 30 0 0 0
SMALL
GASTEIGER

@<TRIPOS>ATOM
      1 N         141.5396  141.5511  161.7775 N.ar    1  UNL1       -0.2189
      2 N         142.4531  141.7166  162.9557 N.ar    1  UNL1       -0.1709
      3 C         141.9937  142.4857  164.1588 C.ar    1  UNL1        0.0832
      4 C         140.6207  143.0893  164.1837 C.ar    1  UNL1        0.0202
      5 C         140.1613  143.8584  165.3868 C.ar    1  UNL1        0.0014
      6 C         138.7883  144.4620  165.4116 C.ar    1  UNL1        0.0000
      7 C         137.8748  144.2964  164.2335 C.ar    1  UNL1        0.0002
      8 C         138.3342  143.5274  163.0304 C.ar    1  UNL1        0.0048
      9 C         139.7072  142.9238  163.0055 C.ar    1  UNL1        0.0588
     10 C         140.1667  142.1547  161.8024 C.ar    1  UNL1        0.2762
     11 O         139.2532  141.9892  160.6243 O.2     1  UNL1       -0.2655
     12 C         142.7913  137.2542  157.3502 C.3     1  UNL1        0.0896
     13 N         142.6692  138.4815  158.2041 N.3     1  UNL1       -0.2714
     14 C         143.3421  139.7128  157.6739 C.3     1  UNL1        0.0722
     15 C         143.4024  141.0818  158.2839 C.3     1  UNL1        0.0193
     16 C         142.8047  141.5577  159.5748 C.3     1  UNL1        0.0259
     17 C         141.9991  140.7820  160.5744 C.3     1  UNL1        0.1098
     18 C         141.5923  139.3389  160.5302 C.3     1  UNL1        0.0418
     19 C         141.8904  138.3151  159.4753 C.3     1  UNL1        0.0741
     20 C         142.9072  142.6512  165.3369 C.3     1  UNL1        0.0738
     21 C         142.8215  141.6983  166.4921 C.ar    1  UNL1       -0.0161
     22 C         142.8884  142.2164  167.8983 C.ar    1  UNL1       -0.0030
     23 C         142.8027  141.2634  169.0535 C.ar    1  UNL1        0.0111
     24 C         142.6501  139.7925  168.8027 C.ar    1  UNL1        0.0577
     25 CL        142.5643  138.8396  169.9579 Cl      1  UNL1       -0.0822
     26 C         142.5831  139.2744  167.3966 C.ar    1  UNL1        0.0111
     27 C         142.6689  140.2273  166.2413 C.ar    1  UNL1       -0.0030
@<TRIPOS>BOND
     1    12    13    1
     2    13    14    1
     3    14    15    1
     4    15    16    1
     5    16    17    1
     6    17     1    1
     7     1     2   ar
     8     2     3   ar
     9     3    20    1
    10    20    21    1
    11    21    22   ar
    12    22    23   ar
    13    23    24   ar
    14    24    25    1
    15    24    26   ar
    16    26    27   ar
    17     3     4   ar
    18     4     5   ar
    19     5     6   ar
    20     6     7   ar
    21     7     8   ar
    22     8     9   ar
    23     9    10   ar
    24    10    11    2
    25    17    18    1
    26    18    19    1
    27    19    13    1
    28    10     1   ar
    29    27    21   ar
    30     9     4   ar
@<TRIPOS>MOLECULE
*****
 27 30 0 0 0
SMALL
GASTEIGER

@<TRIPOS>ATOM
      1 N         140.3058  141.5049  165.9648 N.ar    1  UNL1       -0.2189
      2 N         139.6106  142.5060  165.0906 N.ar    1  UNL1       -0.1709
      3 C         138.8381  142.0452  163.8903 C.ar    1  UNL1        0.0832
      4 C         138.7608  140.5831  163.5641 C.ar    1  UNL1        0.0202
      5 C         137.9884  140.1222  162.3638 C.ar    1  UNL1        0.0014
      6 C         137.9112  138.6602  162.0377 C.ar    1  UNL1        0.0000
      7 C         138.6065  137.6590  162.9118 C.ar    1  UNL1        0.0002
      8 C         139.3789  138.1198  164.1122 C.ar    1  UNL1        0.0048
      9 C         139.4561  139.5819  164.4383 C.ar    1  UNL1        0.0588
     10 C         140.2286  140.0428  165.6387 C.ar    1  UNL1        0.2762
     11 O         140.9239  139.0416  166.5129 O.2     1  UNL1       -0.2655
     12 C         144.6652  143.0526  170.2347 C.3     1  UNL1        0.0896
     13 N         143.4123  142.7944  169.4512 N.3     1  UNL1       -0.2714
     14 C         142.1290  143.1565  170.1381 C.3     1  UNL1        0.0722
     15 C         140.7249  143.0220  169.6280 C.3     1  UNL1        0.0193
     16 C         140.2572  142.4920  168.3048 C.3     1  UNL1        0.0259
     17 C         141.0784  141.9658  167.1652 C.3     1  UNL1        0.1098
     18 C         142.5698  141.8395  167.0671 C.3     1  UNL1        0.0418
     19 C         143.6086  142.2083  168.0844 C.3     1  UNL1        0.0741
     20 C         138.1428  143.0464  163.0161 C.3     1  UNL1        0.0738
     21 C         138.8900  143.7148  161.9005 C.ar    1  UNL1       -0.0161
     22 C         139.4740  145.0817  162.1022 C.ar    1  UNL1       -0.0030
     23 C         140.2213  145.7502  160.9866 C.ar    1  UNL1        0.0111
     24 C         140.3846  145.0519  159.6692 C.ar    1  UNL1        0.0577
     25 CL        141.1318  145.7204  158.5535 Cl      1  UNL1       -0.0822
     26 C         139.8007  143.6851  159.4674 C.ar    1  UNL1        0.0111
     27 C         139.0534  143.0165  160.5830 C.ar    1  UNL1       -0.0030
@<TRIPOS>BOND
     1    12    13    1
     2    13    14    1
     3    14    15    1
     4    15    16    1
     5    16    17    1
     6    17     1    1
     7     1     2   ar
     8     2     3   ar
     9     3    20    1
    10    20    21    1
    11    21    22   ar
    12    22    23   ar
    13    23    24   ar
    14    24    25    1
    15    24    26   ar
    16    26    27   ar
    17     3     4   ar
    18     4     5   ar
    19     5     6   ar
    20     6     7   ar
    21     7     8   ar
    22     8     9   ar
    23     9    10   ar
    24    10    11    2
    25    17    18    1
    26    18    19    1
    27    19    13    1
    28    10     1   ar
    29    27    21   ar
    30     9     4   ar
@<TRIPOS>MOLECULE
*****
 27 30 0 0 0
SMALL
GASTEIGER

@<TRIPOS>ATOM
      1 N         141.5042  141.6028  162.6472 N.ar    1  UNL1       -0.2189
      2 N         140.5050  141.2238  163.6998 N.ar    1  UNL1       -0.1709
      3 C         140.9108  140.3254  164.8303 C.ar    1  UNL1        0.0832
      4 C         142.3159  139.8059  164.9083 C.ar    1  UNL1        0.0202
      5 C         142.7217  138.9075  166.0388 C.ar    1  UNL1        0.0014
      6 C         144.1267  138.3880  166.1167 C.ar    1  UNL1        0.0000
      7 C         145.1259  138.7670  165.0641 C.ar    1  UNL1        0.0002
      8 C         144.7201  139.6655  163.9336 C.ar    1  UNL1        0.0048
      9 C         143.3151  140.1849  163.8557 C.ar    1  UNL1        0.0588
     10 C         142.9092  141.0834  162.7251 C.ar    1  UNL1        0.2762
     11 O         143.9084  141.4624  161.6725 O.2     1  UNL1       -0.2655
     12 C         139.5665  144.1571  157.2295 C.3     1  UNL1        0.0896
     13 N         140.0609  143.8688  158.6161 N.3     1  UNL1       -0.2714
     14 C         140.3575  145.0700  159.4641 C.3     1  UNL1        0.0722
     15 C         140.8598  145.1165  160.8767 C.3     1  UNL1        0.0193
     16 C         141.1895  143.9733  161.7903 C.3     1  UNL1        0.0259
     17 C         141.0983  142.5013  161.5167 C.3     1  UNL1        0.1098
     18 C         140.6550  141.8089  160.2621 C.3     1  UNL1        0.0418
     19 C         140.1932  142.4174  158.9712 C.3     1  UNL1        0.0741
     20 C         139.9116  139.9464  165.8829 C.3     1  UNL1        0.0738
     21 C         139.8983  140.6669  167.1985 C.ar    1  UNL1       -0.0161
     22 C         140.4584  142.0548  167.2992 C.ar    1  UNL1       -0.0030
     23 C         140.4451  142.7752  168.6148 C.ar    1  UNL1        0.0111
     24 C         139.8716  142.1079  169.8296 C.ar    1  UNL1        0.0577
     25 CL        139.8583  142.8284  171.1451 Cl      1  UNL1       -0.0822
     26 C         139.3116  140.7201  169.7289 C.ar    1  UNL1        0.0111
     27 C         139.3249  139.9995  168.4133 C.ar    1  UNL1       -0.0030
@<TRIPOS>BOND
     1    12    13    1
     2    13    14    1
     3    14    15    1
     4    15    16    1
     5    16    17    1
     6    17     1    1
     7     1     2   ar
     8     2     3   ar
     9     3    20    1
    10    20    21    1
    11    21    22   ar
    12    22    23   ar
    13    23    24   ar
    14    24    25    1
    15    24    26   ar
    16    26    27   ar
    17     3     4   ar
    18     4     5   ar
    19     5     6   ar
    20     6     7   ar
    21     7     8   ar
    22     8     9   ar
    23     9    10   ar
    24    10    11    2
    25    17    18    1
    26    18    19    1
    27    19    13    1
    28    10     1   ar
    29    27    21   ar
    30     9     4   ar
@<TRIPOS>MOLECULE
*****
 27 30 0 0 0
SMALL
GASTEIGER

@<TRIPOS>ATOM
      1 N         142.4358  142.3742  165.6343 N.ar    1  UNL1       -0.2189
      2 N         143.4870  142.3008  164.5667 N.ar    1  UNL1       -0.1709
      3 C         143.2914  143.0295  163.2703 C.ar    1  UNL1        0.0832
      4 C         142.0446  143.8315  163.0413 C.ar    1  UNL1        0.0202
      5 C         141.8491  144.5602  161.7449 C.ar    1  UNL1        0.0014
      6 C         140.6024  145.3622  161.5160 C.ar    1  UNL1        0.0000
      7 C         139.5512  145.4356  162.5835 C.ar    1  UNL1        0.0002
      8 C         139.7468  144.7069  163.8800 C.ar    1  UNL1        0.0048
      9 C         140.9935  143.9049  164.1089 C.ar    1  UNL1        0.0588
     10 C         141.1891  143.1762  165.4054 C.ar    1  UNL1        0.2762
     11 O         140.1379  143.2496  166.4729 O.2     1  UNL1       -0.2655
     12 C         142.9206  138.1831  170.3066 C.3     1  UNL1        0.0896
     13 N         142.8910  139.4016  169.4322 N.3     1  UNL1       -0.2714
     14 C         143.2287  140.6968  170.1093 C.3     1  UNL1        0.0722
     15 C         143.2863  142.0740  169.5178 C.3     1  UNL1        0.0193
     16 C         143.0205  142.4963  168.1032 C.3     1  UNL1        0.0259
     17 C         142.6314  141.6455  166.9308 C.3     1  UNL1        0.1098
     18 C         142.4120  140.1624  166.8833 C.3     1  UNL1        0.0418
     19 C         142.5275  139.1638  167.9965 C.3     1  UNL1        0.0741
     20 C         144.3426  142.9561  162.2027 C.3     1  UNL1        0.0738
     21 C         144.1416  142.0661  161.0122 C.ar    1  UNL1       -0.0161
     22 C         143.9136  140.5960  161.2047 C.ar    1  UNL1       -0.0030
     23 C         143.7126  139.7060  160.0142 C.ar    1  UNL1        0.0111
     24 C         143.7397  140.2859  158.6311 C.ar    1  UNL1        0.0577
     25 CL        143.5388  139.3959  157.4406 Cl      1  UNL1       -0.0822
     26 C         143.9678  141.7559  158.4386 C.ar    1  UNL1        0.0111
     27 C         144.1687  142.6460  159.6291 C.ar    1  UNL1       -0.0030
@<TRIPOS>BOND
     1    12    13    1
     2    13    14    1
     3    14    15    1
     4    15    16    1
     5    16    17    1
     6    17     1    1
     7     1     2   ar
     8     2     3   ar
     9     3    20    1
    10    20    21    1
    11    21    22   ar
    12    22    23   ar
    13    23    24   ar
    14    24    25    1
    15    24    26   ar
    16    26    27   ar
    17     3     4   ar
    18     4     5   ar
    19     5     6   ar
    20     6     7   ar
    21     7     8   ar
    22     8     9   ar
    23     9    10   ar
    24    10    11    2
    25    17    18    1
    26    18    19    1
    27    19    13    1
    28    10     1   ar
    29    27    21   ar
    30     9     4   ar
@<TRIPOS>MOLECULE
*****
 27 30 0 0 0
SMALL
GASTEIGER

@<TRIPOS>ATOM
      1 N         143.7032  142.5904  159.7708 N.ar    1  UNL1       -0.2189
      2 N         144.3944  142.4462  161.0943 N.ar    1  UNL1       -0.1709
      3 C         143.8791  143.1848  162.2938 C.ar    1  UNL1        0.0832
      4 C         142.6727  144.0676  162.1699 C.ar    1  UNL1        0.0202
      5 C         142.1574  144.8062  163.3695 C.ar    1  UNL1        0.0014
      6 C         140.9511  145.6889  163.2456 C.ar    1  UNL1        0.0000
      7 C         140.2599  145.8331  161.9221 C.ar    1  UNL1        0.0002
      8 C         140.7752  145.0945  160.7225 C.ar    1  UNL1        0.0048
      9 C         141.9816  144.2118  160.8465 C.ar    1  UNL1        0.0588
     10 C         142.4969  143.4731  159.6469 C.ar    1  UNL1        0.2762
     11 O         141.8057  143.6173  158.3234 O.2     1  UNL1       -0.2655
     12 C         144.8322  138.5838  155.0481 C.3     1  UNL1        0.0896
     13 N         144.8230  139.7067  156.0427 N.3     1  UNL1       -0.2714
     14 C         145.8716  140.7606  155.8442 C.3     1  UNL1        0.0722
     15 C         146.1226  141.9952  156.6582 C.3     1  UNL1        0.0193
     16 C         145.3869  142.4809  157.8719 C.3     1  UNL1        0.0259
     17 C         144.2185  141.8517  158.5712 C.3     1  UNL1        0.1098
     18 C         143.4973  140.5817  158.2296 C.3     1  UNL1        0.0418
     19 C         143.7662  139.6270  157.1044 C.3     1  UNL1        0.0741
     20 C         144.5702  143.0407  163.6173 C.3     1  UNL1        0.0738
     21 C         144.0027  142.1288  164.6643 C.ar    1  UNL1       -0.0161
     22 C         143.9808  140.6464  164.4359 C.ar    1  UNL1       -0.0030
     23 C         143.4133  139.7345  165.4829 C.ar    1  UNL1        0.0111
     24 C         142.8678  140.3049  166.7585 C.ar    1  UNL1        0.0577
     25 CL        142.3003  139.3930  167.8055 Cl      1  UNL1       -0.0822
     26 C         142.8897  141.7872  166.9869 C.ar    1  UNL1        0.0111
     27 C         143.4572  142.6992  165.9399 C.ar    1  UNL1       -0.0030
@<TRIPOS>BOND
     1    12    13    1
     2    13    14    1
     3    14    15    1
     4    15    16    1
     5    16    17    1
     6    17     1    1
     7     1     2   ar
     8     2     3   ar
     9     3    20    1
    10    20    21    1
    11    21    22   ar
    12    22    23   ar
    13    23    24   ar
    14    24    25    1
    15    24    26   ar
    16    26    27   ar
    17     3     4   ar
    18     4     5   ar
    19     5     6   ar
    20     6     7   ar
    21     7     8   ar
    22     8     9   ar
    23     9    10   ar
    24    10    11    2
    25    17    18    1
    26    18    19    1
    27    19    13    1
    28    10     1   ar
    29    27    21   ar
    30     9     4   ar
