@<TRIPOS>MOLECULE
*****
 33 37 0 0 0
SMALL
GASTEIGER

@<TRIPOS>ATOM
      1 N         142.9264  138.7444  160.6804 N.ar    1  UNL1       -0.1982
      2 N         144.0158  139.7688  160.7984 N.ar    1  UNL1       -0.1667
      3 C         144.2292  140.0527  162.2557 C.ar    1  UNL1        0.0849
      4 C         143.2717  139.2038  163.0384 C.ar    1  UNL1        0.0334
      5 C         143.0290  139.0625  164.5119 C.ar    1  UNL1        0.0027
      6 C         141.9813  138.1128  165.0117 C.ar    1  UNL1        0.0001
      7 C         141.1761  137.3041  164.0381 C.ar    1  UNL1        0.0015
      8 C         141.4188  137.4453  162.5647 C.ar    1  UNL1        0.0193
      9 C         142.4666  138.3952  162.0648 C.ar    1  UNL1        0.0870
     10 N         140.5346  136.6254  155.6312 N.ar    1  UNL1       -0.2748
     11 C         139.2269  137.3593  155.6652 C.ar    1  UNL1        0.3516
     12 O         138.1338  137.2611  154.6426 O.2     1  UNL1       -0.2444
     13 N         139.2041  138.2088  156.9013 N.ar    1  UNL1       -0.1734
     14 C         140.4978  137.9998  157.6312 C.ar    1  UNL1        0.1662
     15 N         141.0332  138.5742  158.9093 N.ar    1  UNL1       -0.3071
     16 C         142.3909  138.1700  159.4023 C.ar    1  UNL1        0.2329
     17 N         143.2132  137.1914  158.6173 N.ar    1  UNL1       -0.1954
     18 C         142.6778  136.6170  157.3393 C.ar    1  UNL1        0.1475
     19 N         143.5001  135.6384  156.5544 N.pl3   1  UNL1       -0.3413
     20 C         141.3201  137.0212  156.8463 C.ar    1  UNL1        0.1295
     21 H         140.4935  139.2165  159.4245 H       1  UNL1        0.1703
     22 H         144.3912  135.3731  156.8780 H       1  UNL1        0.1438
     23 H         143.1487  135.2614  155.7155 H       1  UNL1        0.1438
     24 C         141.9113  136.1216  153.4862 C.3     1  UNL1        0.0266
     25 C         140.9789  135.6643  154.5687 C.3     1  UNL1        0.1108
     26 C         145.2252  141.0164  162.8295 C.3     1  UNL1        0.0762
     27 C         144.7709  142.3559  163.3289 C.ar    1  UNL1        0.0113
     28 C         144.8003  142.6582  164.7978 C.ar    1  UNL1       -0.0017
     29 C         144.3460  143.9977  165.2971 C.ar    1  UNL1       -0.0002
     30 C         143.8623  145.0349  164.3274 C.ar    1  UNL1        0.0023
     31 C         143.8329  144.7326  162.8586 C.ar    1  UNL1        0.0293
     32 C         144.2872  143.3931  162.3593 C.ar    1  UNL1        0.1365
     33 F         144.2578  143.0908  160.8903 F       1  UNL1       -0.2045
@<TRIPOS>BOND
     1    24    25    1
     2    25    10    1
     3    10    11   ar
     4    11    12    2
     5    11    13   ar
     6    13    14   ar
     7    14    15   ar
     8    15    16   ar
     9    16     1    1
    10     1     2   ar
    11     2     3   ar
    12     3    26    1
    13    26    27    1
    14    27    28   ar
    15    28    29   ar
    16    29    30   ar
    17    30    31   ar
    18    31    32   ar
    19    32    33    1
    20     3     4   ar
    21     4     5   ar
    22     5     6   ar
    23     6     7   ar
    24     7     8   ar
    25     8     9   ar
    26    16    17   ar
    27    17    18   ar
    28    18    19    1
    29    18    20   ar
    30    20    10   ar
    31    20    14    1
    32     9     1   ar
    33    32    27   ar
    34     9     4   ar
    35    15    21    1
    36    19    22    1
    37    19    23    1
@<TRIPOS>MOLECULE
*****
 33 37 0 0 0
SMALL
GASTEIGER

@<TRIPOS>ATOM
      1 N         140.3914  140.2094  163.4229 N.ar    1  UNL1       -0.1982
      2 N         140.7180  141.5697  163.9641 N.ar    1  UNL1       -0.1667
      3 C         140.1541  141.6644  165.3509 C.ar    1  UNL1        0.0849
      4 C         139.4791  140.3626  165.6667 C.ar    1  UNL1        0.0334
      5 C         138.7499  139.8798  166.8853 C.ar    1  UNL1        0.0027
      6 C         138.1674  138.4979  166.9124 C.ar    1  UNL1        0.0001
      7 C         138.3140  137.5986  165.7208 C.ar    1  UNL1        0.0015
      8 C         139.0433  138.0814  164.5022 C.ar    1  UNL1        0.0193
      9 C         139.6258  139.4634  164.4751 C.ar    1  UNL1        0.0870
     10 N         141.5758  138.1154  157.9532 N.ar    1  UNL1       -0.2748
     11 C         140.1714  137.9867  157.4422 C.ar    1  UNL1        0.3516
     12 O         139.7692  137.4970  156.0826 O.2     1  UNL1       -0.2444
     13 N         139.2398  138.4337  158.5295 N.ar    1  UNL1       -0.1734
     14 C         140.0684  138.8387  159.7125 C.ar    1  UNL1        0.1662
     15 N         139.6948  139.3612  161.0680 N.ar    1  UNL1       -0.3071
     16 C         140.7650  139.6869  162.0673 C.ar    1  UNL1        0.2329
     17 N         142.2087  139.4901  161.7111 N.ar    1  UNL1       -0.1954
     18 C         142.5823  138.9676  160.3556 C.ar    1  UNL1        0.1475
     19 N         144.0261  138.7709  159.9994 N.pl3   1  UNL1       -0.3413
     20 C         141.5122  138.6419  159.3563 C.ar    1  UNL1        0.1295
     21 H         138.7473  139.4903  161.3018 H       1  UNL1        0.1703
     22 H         144.7285  138.9847  160.6553 H       1  UNL1        0.1438
     23 H         144.2713  138.4279  159.1097 H       1  UNL1        0.1438
     24 C         143.0648  136.3693  156.7348 C.3     1  UNL1        0.0266
     25 C         142.8246  137.7769  157.1943 C.3     1  UNL1        0.1108
     26 C         140.2487  142.8523  166.2619 C.3     1  UNL1        0.0762
     27 C         141.0470  142.7642  167.5287 C.ar    1  UNL1        0.0113
     28 C         140.4217  143.1466  168.8375 C.ar    1  UNL1       -0.0017
     29 C         141.2201  143.0585  170.1042 C.ar    1  UNL1       -0.0002
     30 C         142.6438  142.5881  170.0623 C.ar    1  UNL1        0.0023
     31 C         143.2690  142.2057  168.7537 C.ar    1  UNL1        0.0293
     32 C         142.4707  142.2938  167.4868 C.ar    1  UNL1        0.1365
     33 F         143.0960  141.9114  166.1781 F       1  UNL1       -0.2045
@<TRIPOS>BOND
     1    24    25    1
     2    25    10    1
     3    10    11   ar
     4    11    12    2
     5    11    13   ar
     6    13    14   ar
     7    14    15   ar
     8    15    16   ar
     9    16     1    1
    10     1     2   ar
    11     2     3   ar
    12     3    26    1
    13    26    27    1
    14    27    28   ar
    15    28    29   ar
    16    29    30   ar
    17    30    31   ar
    18    31    32   ar
    19    32    33    1
    20     3     4   ar
    21     4     5   ar
    22     5     6   ar
    23     6     7   ar
    24     7     8   ar
    25     8     9   ar
    26    16    17   ar
    27    17    18   ar
    28    18    19    1
    29    18    20   ar
    30    20    10   ar
    31    20    14    1
    32     9     1   ar
    33    32    27   ar
    34     9     4   ar
    35    15    21    1
    36    19    22    1
    37    19    23    1
@<TRIPOS>MOLECULE
*****
 33 37 0 0 0
SMALL
GASTEIGER

@<TRIPOS>ATOM
      1 N         141.1887  143.8477  161.9183 N.ar    1  UNL1       -0.1982
      2 N         142.4821  143.4204  162.5465 N.ar    1  UNL1       -0.1667
      3 C         142.2549  143.2745  164.0220 C.ar    1  UNL1        0.0849
      4 C         140.8211  143.6117  164.3057 C.ar    1  UNL1        0.0334
      5 C         140.0303  143.6419  165.5800 C.ar    1  UNL1        0.0027
      6 C         138.5807  144.0264  165.5541 C.ar    1  UNL1        0.0001
      7 C         137.9217  144.3807  164.2540 C.ar    1  UNL1        0.0015
      8 C         138.7125  144.3504  162.9797 C.ar    1  UNL1        0.0193
      9 C         140.1622  143.9660  163.0056 C.ar    1  UNL1        0.0870
     10 N         140.0490  144.6912  156.1136 N.ar    1  UNL1       -0.2748
     11 C         138.8910  143.7497  155.9629 C.ar    1  UNL1        0.3516
     12 O         138.1242  143.4903  154.7000 O.2     1  UNL1       -0.2444
     13 N         138.6344  143.1133  157.2967 N.ar    1  UNL1       -0.1734
     14 C         139.6338  143.6613  158.2718 C.ar    1  UNL1        0.1662
     15 N         139.8606  143.3984  159.7310 N.ar    1  UNL1       -0.3071
     16 C         140.9618  144.1106  160.4590 C.ar    1  UNL1        0.2329
     17 N         141.8361  145.0858  159.7279 N.ar    1  UNL1       -0.1954
     18 C         141.6092  145.3488  158.2686 C.ar    1  UNL1        0.1475
     19 N         142.4835  146.3240  157.5375 N.pl3   1  UNL1       -0.3413
     20 C         140.5081  144.6365  157.5406 C.ar    1  UNL1        0.1295
     21 H         139.2868  142.7584  160.2109 H       1  UNL1        0.1703
     22 H         143.2063  146.7914  158.0153 H       1  UNL1        0.1438
     23 H         142.3346  146.4965  156.5797 H       1  UNL1        0.1438
     24 C         140.1024  146.9132  154.7683 C.3     1  UNL1        0.0266
     25 C         140.6435  145.5385  155.0280 C.3     1  UNL1        0.1108
     26 C         143.2813  142.8636  165.0357 C.3     1  UNL1        0.0762
     27 C         143.2270  141.4941  165.6453 C.ar    1  UNL1        0.0113
     28 C         143.7061  140.3062  164.8646 C.ar    1  UNL1       -0.0017
     29 C         143.6518  138.9368  165.4742 C.ar    1  UNL1       -0.0002
     30 C         143.1185  138.7552  166.8644 C.ar    1  UNL1        0.0023
     31 C         142.6395  139.9431  167.6450 C.ar    1  UNL1        0.0293
     32 C         142.6937  141.3126  167.0354 C.ar    1  UNL1        0.1365
     33 F         142.2147  142.5005  167.8161 F       1  UNL1       -0.2045
@<TRIPOS>BOND
     1    24    25    1
     2    25    10    1
     3    10    11   ar
     4    11    12    2
     5    11    13   ar
     6    13    14   ar
     7    14    15   ar
     8    15    16   ar
     9    16     1    1
    10     1     2   ar
    11     2     3   ar
    12     3    26    1
    13    26    27    1
    14    27    28   ar
    15    28    29   ar
    16    29    30   ar
    17    30    31   ar
    18    31    32   ar
    19    32    33    1
    20     3     4   ar
    21     4     5   ar
    22     5     6   ar
    23     6     7   ar
    24     7     8   ar
    25     8     9   ar
    26    16    17   ar
    27    17    18   ar
    28    18    19    1
    29    18    20   ar
    30    20    10   ar
    31    20    14    1
    32     9     1   ar
    33    32    27   ar
    34     9     4   ar
    35    15    21    1
    36    19    22    1
    37    19    23    1
@<TRIPOS>MOLECULE
*****
 33 37 0 0 0
SMALL
GASTEIGER

@<TRIPOS>ATOM
      1 N         142.8656  138.8631  160.7257 N.ar    1  UNL1       -0.1982
      2 N         143.9544  139.8838  160.8770 N.ar    1  UNL1       -0.1667
      3 C         144.1947  140.0914  162.3430 C.ar    1  UNL1        0.0849
      4 C         143.2544  139.1990  163.0978 C.ar    1  UNL1        0.0334
      5 C         143.0400  138.9796  164.5660 C.ar    1  UNL1        0.0027
      6 C         142.0043  138.0011  165.0348 C.ar    1  UNL1        0.0001
      7 C         141.1828  137.2420  164.0352 C.ar    1  UNL1        0.0015
      8 C         141.3972  137.4615  162.5669 C.ar    1  UNL1        0.0193
      9 C         142.4330  138.4400  162.0982 C.ar    1  UNL1        0.0870
     10 N         140.9035  136.6729  155.5240 N.ar    1  UNL1       -0.2748
     11 C         142.0810  135.8127  155.1727 C.ar    1  UNL1        0.3516
     12 O         142.2190  134.9669  153.9416 O.2     1  UNL1       -0.2444
     13 N         143.0964  135.9469  156.2686 N.ar    1  UNL1       -0.1734
     14 C         142.5464  136.8900  157.2972 C.ar    1  UNL1        0.1662
     15 N         143.1046  137.3981  158.5934 N.ar    1  UNL1       -0.3071
     16 C         142.3074  138.3550  159.4294 C.ar    1  UNL1        0.2329
     17 N         140.9521  138.8037  158.9692 N.ar    1  UNL1       -0.1954
     18 C         140.3939  138.2956  157.6730 C.ar    1  UNL1        0.1475
     19 N         139.0386  138.7443  157.2128 N.pl3   1  UNL1       -0.3413
     20 C         141.1911  137.3387  156.8370 C.ar    1  UNL1        0.1295
     21 H         143.9941  137.1036  158.8955 H       1  UNL1        0.1703
     22 H         138.5155  139.3724  157.7616 H       1  UNL1        0.1438
     23 H         138.6723  138.4108  156.3621 H       1  UNL1        0.1438
     24 C         139.6744  137.7010  153.4788 C.3     1  UNL1        0.0266
     25 C         139.6571  136.8383  154.7059 C.3     1  UNL1        0.1108
     26 C         145.1990  141.0270  162.9480 C.3     1  UNL1        0.0762
     27 C         144.7702  142.3850  163.4189 C.ar    1  UNL1        0.0113
     28 C         144.7292  142.6916  164.8867 C.ar    1  UNL1       -0.0017
     29 C         144.3004  144.0496  165.3575 C.ar    1  UNL1       -0.0002
     30 C         143.9126  145.1012  164.3606 C.ar    1  UNL1        0.0023
     31 C         143.9537  144.7947  162.8929 C.ar    1  UNL1        0.0293
     32 C         144.3825  143.4366  162.4220 C.ar    1  UNL1        0.1365
     33 F         144.4235  143.1301  160.9542 F       1  UNL1       -0.2045
@<TRIPOS>BOND
     1    24    25    1
     2    25    10    1
     3    10    11   ar
     4    11    12    2
     5    11    13   ar
     6    13    14   ar
     7    14    15   ar
     8    15    16   ar
     9    16     1    1
    10     1     2   ar
    11     2     3   ar
    12     3    26    1
    13    26    27    1
    14    27    28   ar
    15    28    29   ar
    16    29    30   ar
    17    30    31   ar
    18    31    32   ar
    19    32    33    1
    20     3     4   ar
    21     4     5   ar
    22     5     6   ar
    23     6     7   ar
    24     7     8   ar
    25     8     9   ar
    26    16    17   ar
    27    17    18   ar
    28    18    19    1
    29    18    20   ar
    30    20    10   ar
    31    20    14    1
    32     9     1   ar
    33    32    27   ar
    34     9     4   ar
    35    15    21    1
    36    19    22    1
    37    19    23    1
@<TRIPOS>MOLECULE
*****
 33 37 0 0 0
SMALL
GASTEIGER

@<TRIPOS>ATOM
      1 N         140.5052  140.7246  163.4993 N.ar    1  UNL1       -0.1982
      2 N         140.5428  140.0465  164.8368 N.ar    1  UNL1       -0.1667
      3 C         140.1475  141.0519  165.8775 C.ar    1  UNL1        0.0849
      4 C         139.8655  142.3513  165.1831 C.ar    1  UNL1        0.0334
      5 C         139.4361  143.6926  165.6993 C.ar    1  UNL1        0.0027
      6 C         139.2277  144.8315  164.7458 C.ar    1  UNL1        0.0001
      7 C         139.4487  144.6292  163.2759 C.ar    1  UNL1        0.0015
      8 C         139.8782  143.2879  162.7598 C.ar    1  UNL1        0.0193
      9 C         140.0866  142.1490  163.7133 C.ar    1  UNL1        0.0870
     10 N         141.4915  138.1983  158.1748 N.ar    1  UNL1       -0.2748
     11 C         140.0765  138.1306  157.6817 C.ar    1  UNL1        0.3516
     12 O         139.6287  137.5800  156.3602 O.2     1  UNL1       -0.2444
     13 N         139.1879  138.7100  158.7422 N.ar    1  UNL1       -0.1734
     14 C         140.0537  139.1360  159.8907 C.ar    1  UNL1        0.1662
     15 N         139.7296  139.7709  161.2104 N.ar    1  UNL1       -0.3071
     16 C         140.8292  140.0896  162.1795 C.ar    1  UNL1        0.2329
     17 N         142.2530  139.7733  161.8288 N.ar    1  UNL1       -0.1954
     18 C         142.5771  139.1384  160.5091 C.ar    1  UNL1        0.1475
     19 N         144.0008  138.8221  160.1584 N.pl3   1  UNL1       -0.3413
     20 C         141.4774  138.8197  159.5400 C.ar    1  UNL1        0.1295
     21 H         138.7951  139.9785  161.4406 H       1  UNL1        0.1703
     22 H         144.7225  139.0313  160.7945 H       1  UNL1        0.1438
     23 H         144.2135  138.4054  159.2922 H       1  UNL1        0.1438
     24 C         142.8484  136.2796  157.0669 C.3     1  UNL1        0.0266
     25 C         142.7072  137.7274  157.4330 C.3     1  UNL1        0.1108
     26 C         140.0511  140.8018  167.3533 C.3     1  UNL1        0.0762
     27 C         140.9572  141.5333  168.2987 C.ar    1  UNL1        0.0113
     28 C         140.4417  142.7112  169.0713 C.ar    1  UNL1       -0.0017
     29 C         141.3478  143.4427  170.0167 C.ar    1  UNL1       -0.0002
     30 C         142.7694  142.9963  170.1895 C.ar    1  UNL1        0.0023
     31 C         143.2849  141.8185  169.4169 C.ar    1  UNL1        0.0293
     32 C         142.3788  141.0870  168.4715 C.ar    1  UNL1        0.1365
     33 F         142.8942  139.9091  167.6989 F       1  UNL1       -0.2045
@<TRIPOS>BOND
     1    24    25    1
     2    25    10    1
     3    10    11   ar
     4    11    12    2
     5    11    13   ar
     6    13    14   ar
     7    14    15   ar
     8    15    16   ar
     9    16     1    1
    10     1     2   ar
    11     2     3   ar
    12     3    26    1
    13    26    27    1
    14    27    28   ar
    15    28    29   ar
    16    29    30   ar
    17    30    31   ar
    18    31    32   ar
    19    32    33    1
    20     3     4   ar
    21     4     5   ar
    22     5     6   ar
    23     6     7   ar
    24     7     8   ar
    25     8     9   ar
    26    16    17   ar
    27    17    18   ar
    28    18    19    1
    29    18    20   ar
    30    20    10   ar
    31    20    14    1
    32     9     1   ar
    33    32    27   ar
    34     9     4   ar
    35    15    21    1
    36    19    22    1
    37    19    23    1
@<TRIPOS>MOLECULE
*****
 33 37 0 0 0
SMALL
GASTEIGER

@<TRIPOS>ATOM
      1 N         140.0908  140.3338  163.1975 N.ar    1  UNL1       -0.1982
      2 N         140.4673  141.6900  163.7165 N.ar    1  UNL1       -0.1667
      3 C         140.0803  141.7561  165.1642 C.ar    1  UNL1        0.0849
      4 C         139.4648  140.4408  165.5400 C.ar    1  UNL1        0.0334
      5 C         138.8992  139.9300  166.8319 C.ar    1  UNL1        0.0027
      6 C         138.3402  138.5403  166.9085 C.ar    1  UNL1        0.0001
      7 C         138.3466  137.6612  165.6930 C.ar    1  UNL1        0.0015
      8 C         138.9122  138.1720  164.4011 C.ar    1  UNL1        0.0193
      9 C         139.4713  139.5619  164.3246 C.ar    1  UNL1        0.0870
     10 N         141.1908  138.2406  157.7100 N.ar    1  UNL1       -0.2748
     11 C         142.5386  137.6305  157.9576 C.ar    1  UNL1        0.3516
     12 O         143.3845  136.9196  156.9431 O.2     1  UNL1       -0.2444
     13 N         142.8920  137.8562  159.3978 N.ar    1  UNL1       -0.1734
     14 C         141.7627  138.6057  160.0403 C.ar    1  UNL1        0.1662
     15 N         141.5559  139.1025  161.4404 N.ar    1  UNL1       -0.3071
     16 C         140.2977  139.8370  161.7974 C.ar    1  UNL1        0.2329
     17 N         139.2463  140.0746  160.7543 N.ar    1  UNL1       -0.1954
     18 C         139.4531  139.5777  159.3542 C.ar    1  UNL1        0.1475
     19 N         138.4017  139.8153  158.3110 N.pl3   1  UNL1       -0.3413
     20 C         140.7113  138.8433  158.9972 C.ar    1  UNL1        0.1295
     21 H         142.2460  138.9466  162.1250 H       1  UNL1        0.1703
     22 H         137.5759  140.2974  158.5454 H       1  UNL1        0.1438
     23 H         138.5374  139.4892  157.3921 H       1  UNL1        0.1438
     24 C         139.5967  137.0759  156.0211 C.3     1  UNL1        0.0266
     25 C         140.4523  138.2469  156.4044 C.3     1  UNL1        0.1108
     26 C         140.2748  142.9312  166.0760 C.3     1  UNL1        0.0762
     27 C         141.0268  142.7652  167.3632 C.ar    1  UNL1        0.0113
     28 C         140.3804  143.1418  168.6634 C.ar    1  UNL1       -0.0017
     29 C         141.1323  142.9758  169.9505 C.ar    1  UNL1       -0.0002
     30 C         142.5307  142.4333  169.9376 C.ar    1  UNL1        0.0023
     31 C         143.1771  142.0568  168.6376 C.ar    1  UNL1        0.0293
     32 C         142.4251  142.2227  167.3503 C.ar    1  UNL1        0.1365
     33 F         143.0716  141.8462  166.0502 F       1  UNL1       -0.2045
@<TRIPOS>BOND
     1    24    25    1
     2    25    10    1
     3    10    11   ar
     4    11    12    2
     5    11    13   ar
     6    13    14   ar
     7    14    15   ar
     8    15    16   ar
     9    16     1    1
    10     1     2   ar
    11     2     3   ar
    12     3    26    1
    13    26    27    1
    14    27    28   ar
    15    28    29   ar
    16    29    30   ar
    17    30    31   ar
    18    31    32   ar
    19    32    33    1
    20     3     4   ar
    21     4     5   ar
    22     5     6   ar
    23     6     7   ar
    24     7     8   ar
    25     8     9   ar
    26    16    17   ar
    27    17    18   ar
    28    18    19    1
    29    18    20   ar
    30    20    10   ar
    31    20    14    1
    32     9     1   ar
    33    32    27   ar
    34     9     4   ar
    35    15    21    1
    36    19    22    1
    37    19    23    1
@<TRIPOS>MOLECULE
*****
 33 37 0 0 0
SMALL
GASTEIGER

@<TRIPOS>ATOM
      1 N         141.7580  143.9545  161.8860 N.ar    1  UNL1       -0.1982
      2 N         142.8986  143.5093  162.7526 N.ar    1  UNL1       -0.1667
      3 C         142.3757  143.3195  164.1456 C.ar    1  UNL1        0.0849
      4 C         140.9120  143.6474  164.1400 C.ar    1  UNL1        0.0334
      5 C         139.8774  143.6393  165.2260 C.ar    1  UNL1        0.0027
      6 C         138.4612  144.0237  164.9156 C.ar    1  UNL1        0.0001
      7 C         138.0794  144.4161  163.5191 C.ar    1  UNL1        0.0015
      8 C         139.1140  144.4242  162.4330 C.ar    1  UNL1        0.0193
      9 C         140.5303  144.0398  162.7434 C.ar    1  UNL1        0.0870
     10 N         141.8092  145.3640  156.0795 N.ar    1  UNL1       -0.2748
     11 C         140.6488  146.3142  156.0586 C.ar    1  UNL1        0.3516
     12 O         140.1258  147.0409  154.8552 O.2     1  UNL1       -0.2444
     13 N         140.1032  146.4102  157.4526 N.ar    1  UNL1       -0.1734
     14 C         140.9264  145.5192  158.3350 C.ar    1  UNL1        0.1662
     15 N         140.8522  145.2132  159.8015 N.ar    1  UNL1       -0.3071
     16 C         141.8323  144.2605  160.4194 C.ar    1  UNL1        0.2329
     17 N         142.8867  143.6140  159.5707 N.ar    1  UNL1       -0.1954
     18 C         142.9609  143.9200  158.1042 C.ar    1  UNL1        0.1475
     19 N         144.0153  143.2734  157.2556 N.pl3   1  UNL1       -0.3413
     20 C         141.9808  144.8726  157.4863 C.ar    1  UNL1        0.1295
     21 H         140.1601  145.6375  160.3585 H       1  UNL1        0.1703
     22 H         144.6586  142.6482  157.6611 H       1  UNL1        0.1438
     23 H         144.0641  143.4743  156.2930 H       1  UNL1        0.1438
     24 C         142.1474  143.9497  153.9264 C.3     1  UNL1        0.0266
     25 C         142.6504  144.9736  154.9005 C.3     1  UNL1        0.1108
     26 C         143.1760  142.8791  165.3354 C.3     1  UNL1        0.0762
     27 C         143.2612  141.4228  165.6846 C.ar    1  UNL1        0.0113
     28 C         142.5668  140.9031  166.9084 C.ar    1  UNL1       -0.0017
     29 C         142.6520  139.4469  167.2576 C.ar    1  UNL1       -0.0002
     30 C         143.4316  138.5103  166.3830 C.ar    1  UNL1        0.0023
     31 C         144.1260  139.0299  165.1592 C.ar    1  UNL1        0.0293
     32 C         144.0408  140.4862  164.8100 C.ar    1  UNL1        0.1365
     33 F         144.7353  141.0059  163.5862 F       1  UNL1       -0.2045
@<TRIPOS>BOND
     1    24    25    1
     2    25    10    1
     3    10    11   ar
     4    11    12    2
     5    11    13   ar
     6    13    14   ar
     7    14    15   ar
     8    15    16   ar
     9    16     1    1
    10     1     2   ar
    11     2     3   ar
    12     3    26    1
    13    26    27    1
    14    27    28   ar
    15    28    29   ar
    16    29    30   ar
    17    30    31   ar
    18    31    32   ar
    19    32    33    1
    20     3     4   ar
    21     4     5   ar
    22     5     6   ar
    23     6     7   ar
    24     7     8   ar
    25     8     9   ar
    26    16    17   ar
    27    17    18   ar
    28    18    19    1
    29    18    20   ar
    30    20    10   ar
    31    20    14    1
    32     9     1   ar
    33    32    27   ar
    34     9     4   ar
    35    15    21    1
    36    19    22    1
    37    19    23    1
@<TRIPOS>MOLECULE
*****
 33 37 0 0 0
SMALL
GASTEIGER

@<TRIPOS>ATOM
      1 N         141.0500  143.7808  161.7894 N.ar    1  UNL1       -0.1982
      2 N         139.9626  143.7525  162.8223 N.ar    1  UNL1       -0.1667
      3 C         140.5811  143.3779  164.1364 C.ar    1  UNL1        0.0849
      4 C         142.0508  143.1746  163.9158 C.ar    1  UNL1        0.0334
      5 C         143.1627  142.7949  164.8483 C.ar    1  UNL1        0.0027
      6 C         144.5643  142.6643  164.3303 C.ar    1  UNL1        0.0001
      7 C         144.8541  142.9132  162.8797 C.ar    1  UNL1        0.0015
      8 C         143.7422  143.2929  161.9472 C.ar    1  UNL1        0.0193
      9 C         142.3406  143.4236  162.4653 C.ar    1  UNL1        0.0870
     10 N         140.1190  144.8907  155.9923 N.ar    1  UNL1       -0.2748
     11 C         138.9365  143.9952  155.7691 C.ar    1  UNL1        0.3516
     12 O         138.2014  143.8117  154.4745 O.2     1  UNL1       -0.2444
     13 N         138.6182  143.3155  157.0678 N.ar    1  UNL1       -0.1734
     14 C         139.6039  143.7908  158.0937 C.ar    1  UNL1        0.1662
     15 N         139.7768  143.4629  159.5471 N.ar    1  UNL1       -0.3071
     16 C         140.8771  144.1086  160.3359 C.ar    1  UNL1        0.2329
     17 N         141.8047  145.0822  159.6712 N.ar    1  UNL1       -0.1954
     18 C         141.6319  145.4101  158.2177 C.ar    1  UNL1        0.1475
     19 N         142.5594  146.3837  157.5531 N.pl3   1  UNL1       -0.3413
     20 C         140.5315  144.7644  157.4290 C.ar    1  UNL1        0.1295
     21 H         139.1680  142.8239  159.9834 H       1  UNL1        0.1703
     22 H         143.2816  146.8075  158.0708 H       1  UNL1        0.1438
     23 H         142.4460  146.5989  156.5991 H       1  UNL1        0.1438
     24 C         140.1562  147.0745  154.5852 C.3     1  UNL1        0.0266
     25 C         140.7740  145.7600  154.9602 C.3     1  UNL1        0.1108
     26 C         139.8570  143.2321  165.4420 C.3     1  UNL1        0.0762
     27 C         139.4869  141.8688  165.9462 C.ar    1  UNL1        0.0113
     28 C         140.0999  141.3448  167.2110 C.ar    1  UNL1       -0.0017
     29 C         139.7297  139.9815  167.7150 C.ar    1  UNL1       -0.0002
     30 C         138.7465  139.1421  166.9544 C.ar    1  UNL1        0.0023
     31 C         138.1335  139.6660  165.6896 C.ar    1  UNL1        0.0293
     32 C         138.5037  141.0293  165.1855 C.ar    1  UNL1        0.1365
     33 F         137.8906  141.5533  163.9207 F       1  UNL1       -0.2045
@<TRIPOS>BOND
     1    24    25    1
     2    25    10    1
     3    10    11   ar
     4    11    12    2
     5    11    13   ar
     6    13    14   ar
     7    14    15   ar
     8    15    16   ar
     9    16     1    1
    10     1     2   ar
    11     2     3   ar
    12     3    26    1
    13    26    27    1
    14    27    28   ar
    15    28    29   ar
    16    29    30   ar
    17    30    31   ar
    18    31    32   ar
    19    32    33    1
    20     3     4   ar
    21     4     5   ar
    22     5     6   ar
    23     6     7   ar
    24     7     8   ar
    25     8     9   ar
    26    16    17   ar
    27    17    18   ar
    28    18    19    1
    29    18    20   ar
    30    20    10   ar
    31    20    14    1
    32     9     1   ar
    33    32    27   ar
    34     9     4   ar
    35    15    21    1
    36    19    22    1
    37    19    23    1
@<TRIPOS>MOLECULE
*****
 33 37 0 0 0
SMALL
GASTEIGER

@<TRIPOS>ATOM
      1 N         141.6221  142.3398  163.0598 N.ar    1  UNL1       -0.1982
      2 N         142.3506  142.0954  164.3480 N.ar    1  UNL1       -0.1667
      3 C         141.5001  142.6175  165.4678 C.ar    1  UNL1        0.0849
      4 C         140.2459  143.1846  164.8716 C.ar    1  UNL1        0.0334
      5 C         139.0449  143.8351  165.4916 C.ar    1  UNL1        0.0027
      6 C         137.9194  144.3139  164.6235 C.ar    1  UNL1        0.0001
      7 C         137.9948  144.1423  163.1352 C.ar    1  UNL1        0.0015
      8 C         139.1958  143.4918  162.5152 C.ar    1  UNL1        0.0193
      9 C         140.3213  143.0130  163.3834 C.ar    1  UNL1        0.0870
     10 N         143.4960  140.5891  157.6627 N.ar    1  UNL1       -0.2748
     11 C         143.2455  139.1160  157.7940 C.ar    1  UNL1        0.3516
     12 O         143.5157  138.0787  156.7447 O.2     1  UNL1       -0.2444
     13 N         142.6775  138.8623  159.1589 N.ar    1  UNL1       -0.1734
     14 C         142.5769  140.1786  159.8711 C.ar    1  UNL1        0.1662
     15 N         142.0900  140.5432  161.2422 N.ar    1  UNL1       -0.3071
     16 C         142.1090  141.9751  161.6886 C.ar    1  UNL1        0.2329
     17 N         142.6148  143.0423  160.7639 N.ar    1  UNL1       -0.1954
     18 C         143.1017  142.6777  159.3928 C.ar    1  UNL1        0.1475
     19 N         143.6075  143.7449  158.4680 N.pl3   1  UNL1       -0.3413
     20 C         143.0827  141.2458  158.9464 C.ar    1  UNL1        0.1295
     21 H         141.7581  139.8427  161.8492 H       1  UNL1        0.1703
     22 H         143.6200  144.6847  158.7610 H       1  UNL1        0.1438
     23 H         143.9271  143.5056  157.5681 H       1  UNL1        0.1438
     24 C         145.5422  141.4808  156.3330 C.3     1  UNL1        0.0266
     25 C         144.0605  141.2836  156.4589 C.3     1  UNL1        0.1108
     26 C         141.8434  142.5792  166.9275 C.3     1  UNL1        0.0762
     27 C         140.9181  141.9074  167.8982 C.ar    1  UNL1        0.0113
     28 C         140.2701  140.6036  167.5371 C.ar    1  UNL1       -0.0017
     29 C         139.3448  139.9318  168.5079 C.ar    1  UNL1       -0.0002
     30 C         139.0674  140.5638  169.8397 C.ar    1  UNL1        0.0023
     31 C         139.7153  141.8675  170.2007 C.ar    1  UNL1        0.0293
     32 C         140.6406  142.5393  169.2300 C.ar    1  UNL1        0.1365
     33 F         141.2886  143.8431  169.5910 F       1  UNL1       -0.2045
@<TRIPOS>BOND
     1    24    25    1
     2    25    10    1
     3    10    11   ar
     4    11    12    2
     5    11    13   ar
     6    13    14   ar
     7    14    15   ar
     8    15    16   ar
     9    16     1    1
    10     1     2   ar
    11     2     3   ar
    12     3    26    1
    13    26    27    1
    14    27    28   ar
    15    28    29   ar
    16    29    30   ar
    17    30    31   ar
    18    31    32   ar
    19    32    33    1
    20     3     4   ar
    21     4     5   ar
    22     5     6   ar
    23     6     7   ar
    24     7     8   ar
    25     8     9   ar
    26    16    17   ar
    27    17    18   ar
    28    18    19    1
    29    18    20   ar
    30    20    10   ar
    31    20    14    1
    32     9     1   ar
    33    32    27   ar
    34     9     4   ar
    35    15    21    1
    36    19    22    1
    37    19    23    1
