@<TRIPOS>MOLECULE
*****
 22 24 0 0 0
SMALL
GASTEIGER

@<TRIPOS>ATOM
      1 C         140.4681  141.7271  167.3789 C.3     1  UNL1        0.1535
      2 C         139.9243  140.4044  167.8314 C.3     1  UNL1        0.1823
      3 C         139.4658  140.2271  169.2486 C.3     1  UNL1        0.0602
      4 C         139.6171  141.4714  170.0902 C.3     1  UNL1        0.0612
      5 C         139.8770  142.8284  170.6741 C.3     1  UNL1        0.0175
      6 C         140.4557  143.6943  169.5946 C.3     1  UNL1        0.0180
      7 C         140.5534  142.8726  168.3436 C.3     1  UNL1        0.0716
      8 N         140.0351  141.4987  168.6498 N.3     1  UNL1       -0.2733
      9 C         139.9167  140.7966  168.2912 C.3     1  UNL1        0.0896
     10 C         140.9266  141.9043  165.9618 C.2     1  UNL1        0.3215
     11 O         140.1553  142.7906  165.0292 O.2     1  UNL1       -0.2499
     12 C         142.0634  140.2295  164.3330 C.3     1  UNL1        0.2556
     13 O         142.1564  141.1952  165.4771 O.3     1  UNL1       -0.4443
     14 O         139.8390  139.2590  166.8667 O.3     1  UNL1       -0.4485
     15 C         138.5466  138.9644  166.1646 C.2     1  UNL1        0.3411
     16 O         137.3328  138.5801  166.9579 O.2     1  UNL1       -0.2449
     17 C         138.4679  139.0540  164.6694 C.ar    1  UNL1        0.0756
     18 C         137.9583  140.3059  164.0188 C.ar    1  UNL1        0.0064
     19 C         137.8797  140.3955  162.5236 C.ar    1  UNL1        0.0002
     20 C         138.3105  139.2333  161.6789 C.ar    1  UNL1        0.0000
     21 C         138.8201  137.9815  162.3294 C.ar    1  UNL1        0.0002
     22 C         138.8988  137.8918  163.8246 C.ar    1  UNL1        0.0064
@<TRIPOS>BOND
     1    12    13    1
     2    13    10    1
     3    10    11    2
     4    10     1    1
     5     1     2    1
     6     2    14    1
     7    14    15    1
     8    15    16    2
     9    15    17    1
    10    17    18   ar
    11    18    19   ar
    12    19    20   ar
    13    20    21   ar
    14    21    22   ar
    15     2     3    1
    16     3     4    1
    17     4     5    1
    18     5     6    1
    19     6     7    1
    20     7     8    1
    21     8     9    1
    22     7     1    1
    23    22    17   ar
    24     8     4    1
@<TRIPOS>MOLECULE
*****
 22 24 0 0 0
SMALL
GASTEIGER

@<TRIPOS>ATOM
      1 C         139.7998  140.7212  168.1427 C.3     1  UNL1        0.1535
      2 C         140.3667  141.5981  167.0658 C.3     1  UNL1        0.1823
      3 C         139.9825  141.3709  165.6338 C.3     1  UNL1        0.0602
      4 C         139.0194  140.2238  165.4438 C.3     1  UNL1        0.0612
      5 C         138.0824  139.0577  165.5535 C.3     1  UNL1        0.0175
      6 C         137.9769  138.6826  167.0020 C.3     1  UNL1        0.0180
      7 C         138.8488  139.6169  167.7875 C.3     1  UNL1        0.0716
      8 N         139.4931  140.5694  166.8244 N.3     1  UNL1       -0.2733
      9 C         139.9971  141.1871  166.8213 C.3     1  UNL1        0.0896
     10 C         140.1839  140.9484  169.5747 C.2     1  UNL1        0.3215
     11 O         139.2675  141.7109  170.4852 O.2     1  UNL1       -0.2499
     12 C         142.2236  139.3580  169.3280 C.3     1  UNL1        0.2556
     13 O         141.4846  140.4133  170.0964 O.3     1  UNL1       -0.4443
     14 O         141.3177  142.7023  167.4211 O.3     1  UNL1       -0.4485
     15 C         142.7958  142.4471  167.4242 C.2     1  UNL1        0.3411
     16 O         143.5824  142.6106  168.6910 O.2     1  UNL1       -0.2449
     17 C         143.4874  142.0284  166.1607 C.ar    1  UNL1        0.0756
     18 C         144.1775  143.0521  165.3088 C.ar    1  UNL1        0.0064
     19 C         144.8691  142.6334  164.0453 C.ar    1  UNL1        0.0002
     20 C         144.8705  141.1910  163.6337 C.ar    1  UNL1        0.0000
     21 C         144.1804  140.1673  164.4856 C.ar    1  UNL1        0.0002
     22 C         143.4888  140.5860  165.7491 C.ar    1  UNL1        0.0064
@<TRIPOS>BOND
     1    12    13    1
     2    13    10    1
     3    10    11    2
     4    10     1    1
     5     1     2    1
     6     2    14    1
     7    14    15    1
     8    15    16    2
     9    15    17    1
    10    17    18   ar
    11    18    19   ar
    12    19    20   ar
    13    20    21   ar
    14    21    22   ar
    15     2     3    1
    16     3     4    1
    17     4     5    1
    18     5     6    1
    19     6     7    1
    20     7     8    1
    21     8     9    1
    22     7     1    1
    23    22    17   ar
    24     8     4    1
@<TRIPOS>MOLECULE
*****
 22 24 0 0 0
SMALL
GASTEIGER

@<TRIPOS>ATOM
      1 C         140.4331  144.0980  162.8802 C.3     1  UNL1        0.1535
      2 C         139.9232  143.2261  163.9892 C.3     1  UNL1        0.1823
      3 C         140.8616  142.7424  165.0548 C.3     1  UNL1        0.0602
      4 C         142.2817  143.2198  164.8682 C.3     1  UNL1        0.0612
      5 C         143.5826  143.8308  164.4389 C.3     1  UNL1        0.0175
      6 C         143.3352  144.6134  163.1834 C.3     1  UNL1        0.0180
      7 C         141.8814  144.4861  162.8367 C.3     1  UNL1        0.0716
      8 N         141.2303  143.6248  163.8780 N.3     1  UNL1       -0.2733
      9 C         140.5152  143.3240  164.0618 C.3     1  UNL1        0.0896
     10 C         139.4947  144.5817  161.8147 C.2     1  UNL1        0.3215
     11 O         138.7029  145.8380  162.0265 O.2     1  UNL1       -0.2499
     12 C         140.1506  142.5607  160.3195 C.3     1  UNL1        0.2556
     13 O         139.3481  143.8092  160.5372 O.3     1  UNL1       -0.4443
     14 O         138.4750  142.8381  164.0326 O.3     1  UNL1       -0.4485
     15 C         138.0138  141.5841  163.3509 C.2     1  UNL1        0.3411
     16 O         137.2652  141.6677  162.0536 O.2     1  UNL1       -0.2449
     17 C         138.3011  140.2466  163.9662 C.ar    1  UNL1        0.0756
     18 C         138.6897  139.0884  163.0957 C.ar    1  UNL1        0.0064
     19 C         138.9769  137.7510  163.7110 C.ar    1  UNL1        0.0002
     20 C         138.8756  137.5717  165.1968 C.ar    1  UNL1        0.0000
     21 C         138.4870  138.7298  166.0673 C.ar    1  UNL1        0.0002
     22 C         138.1997  140.0673  165.4519 C.ar    1  UNL1        0.0064
@<TRIPOS>BOND
     1    12    13    1
     2    13    10    1
     3    10    11    2
     4    10     1    1
     5     1     2    1
     6     2    14    1
     7    14    15    1
     8    15    16    2
     9    15    17    1
    10    17    18   ar
    11    18    19   ar
    12    19    20   ar
    13    20    21   ar
    14    21    22   ar
    15     2     3    1
    16     3     4    1
    17     4     5    1
    18     5     6    1
    19     6     7    1
    20     7     8    1
    21     8     9    1
    22     7     1    1
    23    22    17   ar
    24     8     4    1
@<TRIPOS>MOLECULE
*****
 22 24 0 0 0
SMALL
GASTEIGER

@<TRIPOS>ATOM
      1 C         140.6764  143.9230  162.8904 C.3     1  UNL1        0.1535
      2 C         140.6257  142.4512  162.6054 C.3     1  UNL1        0.1823
      3 C         141.8076  141.5844  162.9244 C.3     1  UNL1        0.0602
      4 C         142.9657  142.3434  163.5262 C.3     1  UNL1        0.0612
      5 C         143.9361  143.3359  164.0946 C.3     1  UNL1        0.0175
      6 C         143.2830  144.6861  164.0749 C.3     1  UNL1        0.0180
      7 C         141.9090  144.5280  163.4944 C.3     1  UNL1        0.0716
      8 N         141.7128  143.0801  163.1553 N.3     1  UNL1       -0.2733
      9 C         141.1612  142.5945  162.8463 C.3     1  UNL1        0.0896
     10 C         139.4946  144.7899  162.5714 C.2     1  UNL1        0.3215
     11 O         139.4526  145.5562  161.2826 O.2     1  UNL1       -0.2499
     12 C         138.5964  144.6828  165.0070 C.3     1  UNL1        0.2556
     13 O         138.3546  144.8904  163.5412 O.3     1  UNL1       -0.4443
     14 O         139.3932  141.8463  162.0014 O.3     1  UNL1       -0.4485
     15 C         138.2904  141.3484  162.8879 C.2     1  UNL1        0.3411
     16 O         136.9949  142.1005  162.9676 O.2     1  UNL1       -0.2449
     17 C         138.4829  140.0985  163.6946 C.ar    1  UNL1        0.0756
     18 C         138.1928  140.1036  165.1663 C.ar    1  UNL1        0.0064
     19 C         138.3853  138.8538  165.9730 C.ar    1  UNL1        0.0002
     20 C         138.8679  137.5988  165.3080 C.ar    1  UNL1        0.0000
     21 C         139.1580  137.5938  163.8363 C.ar    1  UNL1        0.0002
     22 C         138.9655  138.8436  163.0296 C.ar    1  UNL1        0.0064
@<TRIPOS>BOND
     1    12    13    1
     2    13    10    1
     3    10    11    2
     4    10     1    1
     5     1     2    1
     6     2    14    1
     7    14    15    1
     8    15    16    2
     9    15    17    1
    10    17    18   ar
    11    18    19   ar
    12    19    20   ar
    13    20    21   ar
    14    21    22   ar
    15     2     3    1
    16     3     4    1
    17     4     5    1
    18     5     6    1
    19     6     7    1
    20     7     8    1
    21     8     9    1
    22     7     1    1
    23    22    17   ar
    24     8     4    1
@<TRIPOS>MOLECULE
*****
 22 24 0 0 0
SMALL
GASTEIGER

@<TRIPOS>ATOM
      1 C         140.6829  140.5432  167.5740 C.3     1  UNL1        0.1535
      2 C         142.0414  139.9941  167.8952 C.3     1  UNL1        0.1823
      3 C         142.3428  139.5008  169.2793 C.3     1  UNL1        0.0602
      4 C         141.1765  139.6253  170.2299 C.3     1  UNL1        0.0612
      5 C         139.8752  139.8643  170.9366 C.3     1  UNL1        0.0175
      6 C         138.9169  140.4661  169.9519 C.3     1  UNL1        0.0180
      7 C         139.6260  140.5990  168.6368 C.3     1  UNL1        0.0716
      8 N         141.0225  140.0793  168.8086 N.3     1  UNL1       -0.2733
      9 C         141.6908  139.9731  168.3871 C.3     1  UNL1        0.0896
     10 C         140.3815  141.0364  166.1898 C.2     1  UNL1        0.3215
     11 O         140.7303  142.4429  165.8023 O.2     1  UNL1       -0.2499
     12 C         138.2450  139.9215  165.2190 C.3     1  UNL1        0.2556
     13 O         139.7312  140.1232  165.1932 O.3     1  UNL1       -0.4443
     14 O         143.0983  139.9382  166.8324 O.3     1  UNL1       -0.4485
     15 C         143.4135  138.6372  166.1557 C.2     1  UNL1        0.3411
     16 O         144.3315  137.6516  166.8161 O.2     1  UNL1       -0.2449
     17 C         142.8109  138.3217  164.8188 C.ar    1  UNL1        0.0756
     18 C         141.5821  137.4657  164.7331 C.ar    1  UNL1        0.0064
     19 C         140.9795  137.1502  163.3962 C.ar    1  UNL1        0.0002
     20 C         141.6058  137.6907  162.1449 C.ar    1  UNL1        0.0000
     21 C         142.8346  138.5467  162.2306 C.ar    1  UNL1        0.0002
     22 C         143.4372  138.8622  163.5675 C.ar    1  UNL1        0.0064
@<TRIPOS>BOND
     1    12    13    1
     2    13    10    1
     3    10    11    2
     4    10     1    1
     5     1     2    1
     6     2    14    1
     7    14    15    1
     8    15    16    2
     9    15    17    1
    10    17    18   ar
    11    18    19   ar
    12    19    20   ar
    13    20    21   ar
    14    21    22   ar
    15     2     3    1
    16     3     4    1
    17     4     5    1
    18     5     6    1
    19     6     7    1
    20     7     8    1
    21     8     9    1
    22     7     1    1
    23    22    17   ar
    24     8     4    1
@<TRIPOS>MOLECULE
*****
 22 24 0 0 0
SMALL
GASTEIGER

@<TRIPOS>ATOM
      1 C         139.0171  141.2158  164.9695 C.3     1  UNL1        0.1535
      2 C         140.4747  141.4306  165.2508 C.3     1  UNL1        0.1823
      3 C         141.0476  142.8166  165.2230 C.3     1  UNL1        0.0602
      4 C         140.0292  143.8824  164.8970 C.3     1  UNL1        0.0612
      5 C         138.8256  144.7107  164.5576 C.3     1  UNL1        0.0175
      6 C         137.6532  143.7864  164.4113 C.3     1  UNL1        0.0180
      7 C         138.1323  142.3870  164.6602 C.3     1  UNL1        0.0716
      8 N         139.6008  142.4463  164.9604 N.3     1  UNL1       -0.2733
      9 C         140.2078  141.9612  165.1387 C.3     1  UNL1        0.0896
     10 C         138.4441  139.8298  164.9974 C.2     1  UNL1        0.3215
     11 O         137.7892  139.3140  166.2443 O.2     1  UNL1       -0.2499
     12 C         138.0822  139.4899  162.4471 C.3     1  UNL1        0.2556
     13 O         138.5261  138.9597  163.7782 O.3     1  UNL1       -0.4443
     14 O         141.3593  140.2595  165.5601 O.3     1  UNL1       -0.4485
     15 C         141.8034  140.0067  166.9704 C.2     1  UNL1        0.3411
     16 O         142.9190  139.0418  167.2438 O.2     1  UNL1       -0.2449
     17 C         141.1321  140.7187  168.1072 C.ar    1  UNL1        0.0756
     18 C         141.6881  142.0172  168.6120 C.ar    1  UNL1        0.0064
     19 C         141.0168  142.7291  169.7489 C.ar    1  UNL1        0.0002
     20 C         139.7894  142.1427  170.3809 C.ar    1  UNL1        0.0000
     21 C         139.2333  140.8442  169.8761 C.ar    1  UNL1        0.0002
     22 C         139.9046  140.1322  168.7392 C.ar    1  UNL1        0.0064
@<TRIPOS>BOND
     1    12    13    1
     2    13    10    1
     3    10    11    2
     4    10     1    1
     5     1     2    1
     6     2    14    1
     7    14    15    1
     8    15    16    2
     9    15    17    1
    10    17    18   ar
    11    18    19   ar
    12    19    20   ar
    13    20    21   ar
    14    21    22   ar
    15     2     3    1
    16     3     4    1
    17     4     5    1
    18     5     6    1
    19     6     7    1
    20     7     8    1
    21     8     9    1
    22     7     1    1
    23    22    17   ar
    24     8     4    1
@<TRIPOS>MOLECULE
*****
 22 24 0 0 0
SMALL
GASTEIGER

@<TRIPOS>ATOM
      1 C         141.5183  142.7048  165.4510 C.3     1  UNL1        0.1535
      2 C         140.2979  143.3863  164.9067 C.3     1  UNL1        0.1823
      3 C         140.4428  144.5738  164.0018 C.3     1  UNL1        0.0602
      4 C         141.8789  144.9568  163.7366 C.3     1  UNL1        0.0612
      5 C         143.3692  145.1046  163.6522 C.3     1  UNL1        0.0175
      6 C         143.9901  144.0256  164.4889 C.3     1  UNL1        0.0180
      7 C         142.8836  143.2108  165.0904 C.3     1  UNL1        0.0716
      8 N         141.5787  143.7864  164.6255 N.3     1  UNL1       -0.2733
      9 C         140.7949  143.6642  164.7038 C.3     1  UNL1        0.0896
     10 C         141.3735  141.5173  166.3559 C.2     1  UNL1        0.3215
     11 O         140.9271  141.7061  167.7754 O.2     1  UNL1       -0.2499
     12 C         142.6120  139.2462  166.5970 C.3     1  UNL1        0.2556
     13 O         141.6749  140.1409  165.8412 O.3     1  UNL1       -0.4443
     14 O         138.9328  142.8802  165.2672 O.3     1  UNL1       -0.4485
     15 C         138.2413  141.8892  164.3785 C.2     1  UNL1        0.3411
     16 O         137.3491  142.3688  163.2721 O.2     1  UNL1       -0.2449
     17 C         138.4419  140.4187  164.5961 C.ar    1  UNL1        0.0756
     18 C         138.9829  139.5636  163.4888 C.ar    1  UNL1        0.0064
     19 C         139.1835  138.0931  163.7064 C.ar    1  UNL1        0.0002
     20 C         138.8432  137.4777  165.0314 C.ar    1  UNL1        0.0000
     21 C         138.3022  138.3329  166.1387 C.ar    1  UNL1        0.0002
     22 C         138.1016  139.8034  165.9211 C.ar    1  UNL1        0.0064
@<TRIPOS>BOND
     1    12    13    1
     2    13    10    1
     3    10    11    2
     4    10     1    1
     5     1     2    1
     6     2    14    1
     7    14    15    1
     8    15    16    2
     9    15    17    1
    10    17    18   ar
    11    18    19   ar
    12    19    20   ar
    13    20    21   ar
    14    21    22   ar
    15     2     3    1
    16     3     4    1
    17     4     5    1
    18     5     6    1
    19     6     7    1
    20     7     8    1
    21     8     9    1
    22     7     1    1
    23    22    17   ar
    24     8     4    1
@<TRIPOS>MOLECULE
*****
 22 24 0 0 0
SMALL
GASTEIGER

@<TRIPOS>ATOM
      1 C         142.2925  141.5700  167.6529 C.3     1  UNL1        0.1535
      2 C         140.8712  142.0307  167.7864 C.3     1  UNL1        0.1823
      3 C         140.4582  142.8562  168.9687 C.3     1  UNL1        0.0602
      4 C         141.5873  143.1364  169.9310 C.3     1  UNL1        0.0612
      5 C         142.8735  143.2540  170.6938 C.3     1  UNL1        0.0175
      6 C         143.9325  142.5114  169.9341 C.3     1  UNL1        0.0180
      7 C         143.3008  141.9349  168.7018 C.3     1  UNL1        0.0716
      8 N         141.8514  142.3212  168.6998 N.3     1  UNL1       -0.2733
      9 C         141.1953  142.2285  168.2566 C.3     1  UNL1        0.0896
     10 C         142.7054  140.7445  166.4706 C.2     1  UNL1        0.3215
     11 O         142.5341  139.2546  166.4995 O.2     1  UNL1       -0.2499
     12 C         142.8784  142.8055  164.8981 C.3     1  UNL1        0.2556
     13 O         143.2897  141.4089  165.2592 O.3     1  UNL1       -0.4443
     14 O         139.8630  141.6659  166.7375 O.3     1  UNL1       -0.4485
     15 C         139.2882  140.2809  166.6992 C.2     1  UNL1        0.3411
     16 O         139.0012  139.5524  167.9787 O.2     1  UNL1       -0.2449
     17 C         139.0003  139.6243  165.3816 C.ar    1  UNL1        0.0756
     18 C         138.3415  140.4046  164.2829 C.ar    1  UNL1        0.0064
     19 C         138.0537  139.7481  162.9652 C.ar    1  UNL1        0.0002
     20 C         138.4247  138.3113  162.7464 C.ar    1  UNL1        0.0000
     21 C         139.0835  137.5310  163.8451 C.ar    1  UNL1        0.0002
     22 C         139.3713  138.1875  165.1627 C.ar    1  UNL1        0.0064
@<TRIPOS>BOND
     1    12    13    1
     2    13    10    1
     3    10    11    2
     4    10     1    1
     5     1     2    1
     6     2    14    1
     7    14    15    1
     8    15    16    2
     9    15    17    1
    10    17    18   ar
    11    18    19   ar
    12    19    20   ar
    13    20    21   ar
    14    21    22   ar
    15     2     3    1
    16     3     4    1
    17     4     5    1
    18     5     6    1
    19     6     7    1
    20     7     8    1
    21     8     9    1
    22     7     1    1
    23    22    17   ar
    24     8     4    1
@<TRIPOS>MOLECULE
*****
 22 24 0 0 0
SMALL
GASTEIGER

@<TRIPOS>ATOM
      1 C         139.4894  138.3469  164.4772 C.3     1  UNL1        0.1535
      2 C         139.7801  139.7786  164.8176 C.3     1  UNL1        0.1823
      3 C         139.1723  140.3968  166.0417 C.3     1  UNL1        0.0602
      4 C         138.2948  139.4483  166.8225 C.3     1  UNL1        0.0612
      5 C         137.4969  138.3089  167.3840 C.3     1  UNL1        0.0175
      6 C         137.6800  137.1255  166.4807 C.3     1  UNL1        0.0180
      7 C         138.5910  137.5334  165.3610 C.3     1  UNL1        0.0716
      8 N         138.9710  138.9690  165.5723 N.3     1  UNL1       -0.2733
      9 C         139.4107  139.5407  165.2327 C.3     1  UNL1        0.0896
     10 C         140.0971  137.7288  163.2531 C.2     1  UNL1        0.3215
     11 O         141.4895  137.1733  163.3058 O.2     1  UNL1       -0.2499
     12 C         138.1038  138.5358  161.7951 C.3     1  UNL1        0.2556
     13 O         139.3125  137.6661  161.9761 O.3     1  UNL1       -0.4443
     14 O         140.6784  140.5920  163.9338 O.3     1  UNL1       -0.4485
     15 C         142.0922  140.8681  164.3520 C.2     1  UNL1        0.3411
     16 O         142.9753  139.7413  164.8000 O.2     1  UNL1       -0.2449
     17 C         142.6230  142.2707  164.3223 C.ar    1  UNL1        0.0756
     18 C         143.9129  142.5994  165.0139 C.ar    1  UNL1        0.0064
     19 C         144.4436  144.0020  164.9842 C.ar    1  UNL1        0.0002
     20 C         143.6845  145.0760  164.2629 C.ar    1  UNL1        0.0000
     21 C         142.3946  144.7473  163.5713 C.ar    1  UNL1        0.0002
     22 C         141.8639  143.3447  163.6010 C.ar    1  UNL1        0.0064
@<TRIPOS>BOND
     1    12    13    1
     2    13    10    1
     3    10    11    2
     4    10     1    1
     5     1     2    1
     6     2    14    1
     7    14    15    1
     8    15    16    2
     9    15    17    1
    10    17    18   ar
    11    18    19   ar
    12    19    20   ar
    13    20    21   ar
    14    21    22   ar
    15     2     3    1
    16     3     4    1
    17     4     5    1
    18     5     6    1
    19     6     7    1
    20     7     8    1
    21     8     9    1
    22     7     1    1
    23    22    17   ar
    24     8     4    1
