@<TRIPOS>MOLECULE
*****
 30 33 0 0 0
SMALL
GASTEIGER

@<TRIPOS>ATOM
      1 C         144.1621  141.1340  162.3337 C.3     1  UNL1        0.0219
      2 C         142.9473  141.9665  162.6187 C.3     1  UNL1        0.0820
      3 C         142.3416  142.8056  161.5328 C.3     1  UNL1        0.0671
      4 C         141.1268  143.6381  161.8176 C.ar    1  UNL1        0.0837
      5 C         140.5176  143.6315  163.1884 C.ar    1  UNL1        0.1159
      6 N         139.3298  144.5473  163.1722 N.ar    1  UNL1       -0.1314
      7 N         139.2048  145.1199  161.7914 N.ar    1  UNL1       -0.0576
      8 N         140.3154  144.5580  160.9542 N.ar    1  UNL1       -0.1813
      9 C         141.1233  142.7924  164.2742 C.3     1  UNL1        0.1426
     10 N         142.3382  141.9599  163.9893 N.am    1  UNL1       -0.2715
     11 C         142.9439  141.1208  165.0752 C.2     1  UNL1        0.2514
     12 O         144.1587  140.2883  164.7904 O.2     1  UNL1       -0.2698
     13 C         140.5699  144.8625  159.5077 C.ar    1  UNL1        0.2543
     14 N         139.5792  144.4351  158.4657 N.ar    1  UNL1       -0.2060
     15 C         139.8337  144.7396  157.0191 C.ar    1  UNL1        0.1332
     16 C         141.0788  145.4715  156.6146 C.ar    1  UNL1        0.1784
     17 F         141.3333  145.7760  155.1680 F       1  UNL1       -0.2009
     18 C         142.0696  145.8989  157.6566 C.ar    1  UNL1        0.1332
     19 N         141.8152  145.5944  159.1031 N.ar    1  UNL1       -0.2060
     20 C         142.3347  141.1142  166.4460 C.ar    1  UNL1        0.0809
     21 C         141.1805  140.2055  166.7494 C.ar    1  UNL1        0.0068
     22 C         140.5713  140.1990  168.1201 C.ar    1  UNL1        0.0002
     23 C         141.1164  141.1011  169.1874 C.ar    1  UNL1        0.0061
     24 C         142.2706  142.0098  168.8840 C.ar    1  UNL1        0.0989
     25 C         142.8797  142.0163  167.5132 C.ar    1  UNL1        0.1483
     26 F         144.0339  142.9250  167.2098 F       1  UNL1       -0.2041
     27 C         142.8157  142.9120  169.9512 C.3     1  UNL1        0.4207
     28 F         143.3609  143.8141  171.0184 F       1  UNL1       -0.1658
     29 F         144.0815  142.1079  169.9843 F       1  UNL1       -0.1658
     30 F         141.5499  143.7160  169.9181 F       1  UNL1       -0.1658
@<TRIPOS>BOND
     1     2     1    1
     2     2     3    1
     3     3     4    1
     4     4     5   ar
     5     5     6   ar
     6     6     7   ar
     7     7     8   ar
     8     8    13    1
     9    13    14   ar
    10    14    15   ar
    11    15    16   ar
    12    16    17    1
    13    16    18   ar
    14    18    19   ar
    15     5     9    1
    16     9    10    1
    17    10    11   am
    18    11    12    2
    19    11    20    1
    20    20    21   ar
    21    21    22   ar
    22    22    23   ar
    23    23    24   ar
    24    24    27    1
    25    27    28    1
    26    27    29    1
    27    27    30    1
    28    24    25   ar
    29    25    26    1
    30    10     2    1
    31    25    20   ar
    32     8     4   ar
    33    19    13   ar
@<TRIPOS>MOLECULE
*****
 30 33 0 0 0
SMALL
GASTEIGER

@<TRIPOS>ATOM
      1 C         141.7202  138.8546  163.3708 C.3     1  UNL1        0.0219
      2 C         140.8218  140.0476  163.5112 C.3     1  UNL1        0.0820
      3 C         140.2679  140.7172  162.2886 C.3     1  UNL1        0.0671
      4 C         139.3695  141.9102  162.4288 C.ar    1  UNL1        0.0837
      5 C         139.0251  142.4337  163.7917 C.ar    1  UNL1        0.1159
      6 N         138.1213  143.6182  163.6186 N.ar    1  UNL1       -0.1314
      7 N         137.9071  143.8268  162.1487 N.ar    1  UNL1       -0.0576
      8 N         138.6785  142.7712  161.4134 N.ar    1  UNL1       -0.1813
      9 C         139.5791  141.7641  165.0143 C.3     1  UNL1        0.1426
     10 N         140.4775  140.5710  164.8740 N.am    1  UNL1       -0.2715
     11 C         141.0314  139.9014  166.0966 C.2     1  UNL1        0.2514
     12 O         141.9298  138.7084  165.9564 O.2     1  UNL1       -0.2698
     13 C         138.7469  142.6058  159.9241 C.ar    1  UNL1        0.2543
     14 N         139.3056  143.7066  159.0721 N.ar    1  UNL1       -0.2060
     15 C         139.3741  143.5412  157.5827 C.ar    1  UNL1        0.1332
     16 C         138.8838  142.2750  156.9455 C.ar    1  UNL1        0.1784
     17 F         138.9522  142.1095  155.4563 F       1  UNL1       -0.2009
     18 C         138.3251  141.1741  157.7976 C.ar    1  UNL1        0.1332
     19 N         138.2566  141.3395  159.2868 N.ar    1  UNL1       -0.2060
     20 C         140.6870  140.4248  167.4595 C.ar    1  UNL1        0.0809
     21 C         139.4648  139.9222  168.1692 C.ar    1  UNL1        0.0068
     22 C         139.1204  140.4456  169.5320 C.ar    1  UNL1        0.0002
     23 C         139.9982  141.4717  170.1853 C.ar    1  UNL1        0.0061
     24 C         141.2204  141.9743  169.4756 C.ar    1  UNL1        0.0989
     25 C         141.5648  141.4508  168.1127 C.ar    1  UNL1        0.1483
     26 F         142.7870  141.9535  167.4031 F       1  UNL1       -0.2041
     27 C         142.0983  143.0004  170.1288 C.3     1  UNL1        0.4207
     28 F         142.9762  144.0263  170.7819 F       1  UNL1       -0.1658
     29 F         143.1300  141.9456  170.3989 F       1  UNL1       -0.1658
     30 F         141.0666  144.0551  169.8586 F       1  UNL1       -0.1658
@<TRIPOS>BOND
     1     2     1    1
     2     2     3    1
     3     3     4    1
     4     4     5   ar
     5     5     6   ar
     6     6     7   ar
     7     7     8   ar
     8     8    13    1
     9    13    14   ar
    10    14    15   ar
    11    15    16   ar
    12    16    17    1
    13    16    18   ar
    14    18    19   ar
    15     5     9    1
    16     9    10    1
    17    10    11   am
    18    11    12    2
    19    11    20    1
    20    20    21   ar
    21    21    22   ar
    22    22    23   ar
    23    23    24   ar
    24    24    27    1
    25    27    28    1
    26    27    29    1
    27    27    30    1
    28    24    25   ar
    29    25    26    1
    30    10     2    1
    31    25    20   ar
    32     8     4   ar
    33    19    13   ar
@<TRIPOS>MOLECULE
*****
 30 33 0 0 0
SMALL
GASTEIGER

@<TRIPOS>ATOM
      1 C         141.0039  139.2626  161.7315 C.3     1  UNL1        0.0219
      2 C         140.8847  140.6312  162.3340 C.3     1  UNL1        0.0820
      3 C         140.9605  141.8458  161.4571 C.3     1  UNL1        0.0671
      4 C         140.8414  143.2144  162.0596 C.ar    1  UNL1        0.0837
      5 C         140.6464  143.3682  163.5389 C.ar    1  UNL1        0.1159
      6 N         140.5624  144.8342  163.8454 N.ar    1  UNL1       -0.1314
      7 N         140.7054  145.5863  162.5555 N.ar    1  UNL1       -0.0576
      8 N         140.8778  144.5852  161.4518 N.ar    1  UNL1       -0.1813
      9 C         140.5707  142.1536  164.4157 C.3     1  UNL1        0.1426
     10 N         140.6898  140.7851  163.8132 N.am    1  UNL1       -0.2715
     11 C         140.6140  139.5703  164.6901 C.2     1  UNL1        0.2514
     12 O         140.7332  138.2018  164.0877 O.2     1  UNL1       -0.2698
     13 C         141.0554  144.8998  159.9959 C.ar    1  UNL1        0.2543
     14 N         139.9972  145.6668  159.2598 N.ar    1  UNL1       -0.2060
     15 C         140.1748  145.9814  157.8039 C.ar    1  UNL1        0.1332
     16 C         141.4106  145.5290  157.0842 C.ar    1  UNL1        0.1784
     17 F         141.5882  145.8435  155.6284 F       1  UNL1       -0.2009
     18 C         142.4688  144.7619  157.8204 C.ar    1  UNL1        0.1332
     19 N         142.2913  144.4474  159.2762 N.ar    1  UNL1       -0.2060
     20 C         140.4191  139.7242  166.1694 C.ar    1  UNL1        0.0809
     21 C         139.0446  139.6158  166.7601 C.ar    1  UNL1        0.0068
     22 C         138.8496  139.7697  168.2394 C.ar    1  UNL1        0.0002
     23 C         140.0293  140.0320  169.1280 C.ar    1  UNL1        0.0061
     24 C         141.4038  140.1404  168.5374 C.ar    1  UNL1        0.0989
     25 C         141.5987  139.9865  167.0581 C.ar    1  UNL1        0.1483
     26 F         142.9732  140.0949  166.4674 F       1  UNL1       -0.2041
     27 C         142.5835  140.4027  169.4260 C.3     1  UNL1        0.4207
     28 F         143.7632  140.6652  170.3145 F       1  UNL1       -0.1658
     29 F         142.6517  141.8128  168.9190 F       1  UNL1       -0.1658
     30 F         142.5153  138.9927  169.9328 F       1  UNL1       -0.1658
@<TRIPOS>BOND
     1     2     1    1
     2     2     3    1
     3     3     4    1
     4     4     5   ar
     5     5     6   ar
     6     6     7   ar
     7     7     8   ar
     8     8    13    1
     9    13    14   ar
    10    14    15   ar
    11    15    16   ar
    12    16    17    1
    13    16    18   ar
    14    18    19   ar
    15     5     9    1
    16     9    10    1
    17    10    11   am
    18    11    12    2
    19    11    20    1
    20    20    21   ar
    21    21    22   ar
    22    22    23   ar
    23    23    24   ar
    24    24    27    1
    25    27    28    1
    26    27    29    1
    27    27    30    1
    28    24    25   ar
    29    25    26    1
    30    10     2    1
    31    25    20   ar
    32     8     4   ar
    33    19    13   ar
@<TRIPOS>MOLECULE
*****
 30 33 0 0 0
SMALL
GASTEIGER

@<TRIPOS>ATOM
      1 C         143.4872  140.3741  163.1745 C.3     1  UNL1        0.0219
      2 C         142.5830  141.5297  163.4864 C.3     1  UNL1        0.0820
      3 C         142.0205  142.3633  162.3735 C.3     1  UNL1        0.0671
      4 C         141.1163  143.5188  162.6853 C.ar    1  UNL1        0.0837
      5 C         140.7746  143.8407  164.1099 C.ar    1  UNL1        0.1159
      6 N         139.8637  145.0324  164.1104 N.ar    1  UNL1       -0.1314
      7 N         139.6423  145.4471  162.6859 N.ar    1  UNL1       -0.0576
      8 N         140.4165  144.5117  161.8051 N.ar    1  UNL1       -0.1813
      9 C         141.3371  143.0070  165.2228 C.3     1  UNL1        0.1426
     10 N         142.2413  141.8515  164.9110 N.am    1  UNL1       -0.2715
     11 C         142.8039  141.0177  166.0239 C.2     1  UNL1        0.2514
     12 O         143.7081  139.8622  165.7122 O.2     1  UNL1       -0.2698
     13 C         140.4798  144.5605  160.3073 C.ar    1  UNL1        0.2543
     14 N         139.4490  143.8407  159.4893 N.ar    1  UNL1       -0.2060
     15 C         139.5122  143.8895  157.9913 C.ar    1  UNL1        0.1332
     16 C         140.6061  144.6582  157.3115 C.ar    1  UNL1        0.1784
     17 F         140.6694  144.7070  155.8137 F       1  UNL1       -0.2009
     18 C         141.6370  145.3781  158.1297 C.ar    1  UNL1        0.1332
     19 N         141.5738  145.3293  159.6275 N.ar    1  UNL1       -0.2060
     20 C         142.4622  141.3396  167.4486 C.ar    1  UNL1        0.0809
     21 C         143.2929  142.3260  168.2146 C.ar    1  UNL1        0.0068
     22 C         142.9512  142.6479  169.6393 C.ar    1  UNL1        0.0002
     23 C         141.7788  141.9832  170.2979 C.ar    1  UNL1        0.0061
     24 C         140.9482  140.9967  169.5319 C.ar    1  UNL1        0.0989
     25 C         141.2899  140.6749  168.1072 C.ar    1  UNL1        0.1483
     26 F         140.4592  139.6884  167.3412 F       1  UNL1       -0.2041
     27 C         139.7757  140.3320  170.1905 C.3     1  UNL1        0.4207
     28 F         138.6034  139.6672  170.8490 F       1  UNL1       -0.1658
     29 F         140.6339  139.1474  170.5223 F       1  UNL1       -0.1658
     30 F         138.9176  141.5167  169.8586 F       1  UNL1       -0.1658
@<TRIPOS>BOND
     1     2     1    1
     2     2     3    1
     3     3     4    1
     4     4     5   ar
     5     5     6   ar
     6     6     7   ar
     7     7     8   ar
     8     8    13    1
     9    13    14   ar
    10    14    15   ar
    11    15    16   ar
    12    16    17    1
    13    16    18   ar
    14    18    19   ar
    15     5     9    1
    16     9    10    1
    17    10    11   am
    18    11    12    2
    19    11    20    1
    20    20    21   ar
    21    21    22   ar
    22    22    23   ar
    23    23    24   ar
    24    24    27    1
    25    27    28    1
    26    27    29    1
    27    27    30    1
    28    24    25   ar
    29    25    26    1
    30    10     2    1
    31    25    20   ar
    32     8     4   ar
    33    19    13   ar
@<TRIPOS>MOLECULE
*****
 30 33 0 0 0
SMALL
GASTEIGER

@<TRIPOS>ATOM
      1 C         139.6604  143.3249  160.9771 C.3     1  UNL1        0.0219
      2 C         140.6073  142.2006  161.2766 C.3     1  UNL1        0.0820
      3 C         141.6051  141.7655  160.2446 C.3     1  UNL1        0.0671
      4 C         142.5519  140.6413  160.5440 C.ar    1  UNL1        0.0837
      5 C         142.5009  139.9522  161.8754 C.ar    1  UNL1        0.1159
      6 N         143.5530  138.8831  161.8847 N.ar    1  UNL1       -0.1314
      7 N         144.2542  138.9114  160.5590 N.ar    1  UNL1       -0.0576
      8 N         143.6355  139.9980  159.7304 N.ar    1  UNL1       -0.1813
      9 C         141.5031  140.3874  162.9074 C.3     1  UNL1        0.1426
     10 N         140.5563  141.5116  162.6079 N.am    1  UNL1       -0.2715
     11 C         139.5584  141.9468  163.6399 C.2     1  UNL1        0.2514
     12 O         138.6115  143.0710  163.3405 O.2     1  UNL1       -0.2698
     13 C         144.0310  140.3751  158.3335 C.ar    1  UNL1        0.2543
     14 N         144.5824  141.7416  158.0532 N.ar    1  UNL1       -0.2060
     15 C         144.9779  142.1187  156.6562 C.ar    1  UNL1        0.1332
     16 C         144.8220  141.1293  155.5397 C.ar    1  UNL1        0.1784
     17 F         145.2175  141.5064  154.1428 F       1  UNL1       -0.2009
     18 C         144.2706  139.7628  155.8201 C.ar    1  UNL1        0.1332
     19 N         143.8751  139.3856  157.2169 N.ar    1  UNL1       -0.2060
     20 C         139.5074  141.2578  164.9713 C.ar    1  UNL1        0.0809
     21 C         140.1793  141.8754  166.1617 C.ar    1  UNL1        0.0068
     22 C         140.1283  141.1863  167.4931 C.ar    1  UNL1        0.0002
     23 C         139.4054  139.8797  167.6341 C.ar    1  UNL1        0.0061
     24 C         138.7334  139.2620  166.4438 C.ar    1  UNL1        0.0989
     25 C         138.7844  139.9511  165.1124 C.ar    1  UNL1        0.1483
     26 F         138.1125  139.3335  163.9220 F       1  UNL1       -0.2041
     27 C         138.0104  137.9553  166.5847 C.3     1  UNL1        0.4207
     28 F         137.2875  136.6486  166.7255 F       1  UNL1       -0.1658
     29 F         138.9445  137.3314  165.5905 F       1  UNL1       -0.1658
     30 F         137.0764  138.5792  167.5788 F       1  UNL1       -0.1658
@<TRIPOS>BOND
     1     2     1    1
     2     2     3    1
     3     3     4    1
     4     4     5   ar
     5     5     6   ar
     6     6     7   ar
     7     7     8   ar
     8     8    13    1
     9    13    14   ar
    10    14    15   ar
    11    15    16   ar
    12    16    17    1
    13    16    18   ar
    14    18    19   ar
    15     5     9    1
    16     9    10    1
    17    10    11   am
    18    11    12    2
    19    11    20    1
    20    20    21   ar
    21    21    22   ar
    22    22    23   ar
    23    23    24   ar
    24    24    27    1
    25    27    28    1
    26    27    29    1
    27    27    30    1
    28    24    25   ar
    29    25    26    1
    30    10     2    1
    31    25    20   ar
    32     8     4   ar
    33    19    13   ar
@<TRIPOS>MOLECULE
*****
 30 33 0 0 0
SMALL
GASTEIGER

@<TRIPOS>ATOM
      1 C         144.8264  142.3173  161.4067 C.3     1  UNL1        0.0219
      2 C         143.3800  142.4425  161.7843 C.3     1  UNL1        0.0820
      3 C         142.3961  143.0120  160.8058 C.3     1  UNL1        0.0671
      4 C         140.9498  143.1373  161.1833 C.ar    1  UNL1        0.0837
      5 C         140.4874  142.6930  162.5393 C.ar    1  UNL1        0.1159
      6 N         139.0101  142.9372  162.6284 N.ar    1  UNL1       -0.1314
      7 N         138.5595  143.5324  161.3274 N.ar    1  UNL1       -0.0576
      8 N         139.7583  143.6561  160.4343 N.ar    1  UNL1       -0.1813
      9 C         141.4714  142.1234  163.5179 C.3     1  UNL1        0.1426
     10 N         142.9177  141.9982  163.1403 N.am    1  UNL1       -0.2715
     11 C         143.9017  141.4286  164.1188 C.2     1  UNL1        0.2514
     12 O         145.3480  141.3034  163.7413 O.2     1  UNL1       -0.2698
     13 C         139.7644  144.2026  159.0374 C.ar    1  UNL1        0.2543
     14 N         139.3099  143.3443  157.8943 N.ar    1  UNL1       -0.2060
     15 C         139.3160  143.8907  156.4973 C.ar    1  UNL1        0.1332
     16 C         139.7765  145.2955  156.2436 C.ar    1  UNL1        0.1784
     17 F         139.7826  145.8420  154.8467 F       1  UNL1       -0.2009
     18 C         140.2310  146.1538  157.3868 C.ar    1  UNL1        0.1332
     19 N         140.2249  145.6074  158.7837 N.ar    1  UNL1       -0.2060
     20 C         143.4393  140.9843  165.4749 C.ar    1  UNL1        0.0809
     21 C         143.1216  139.5395  165.7228 C.ar    1  UNL1        0.0068
     22 C         142.6592  139.0952  167.0788 C.ar    1  UNL1        0.0002
     23 C         142.5146  140.0957  168.1869 C.ar    1  UNL1        0.0061
     24 C         142.8323  141.5406  167.9390 C.ar    1  UNL1        0.0989
     25 C         143.2947  141.9849  166.5830 C.ar    1  UNL1        0.1483
     26 F         143.6125  143.4297  166.3351 F       1  UNL1       -0.2041
     27 C         142.6878  142.5413  169.0472 C.3     1  UNL1        0.4207
     28 F         142.5433  143.5419  170.1553 F       1  UNL1       -0.1658
     29 F         144.0869  142.2434  169.4985 F       1  UNL1       -0.1658
     30 F         141.2887  142.8390  168.5958 F       1  UNL1       -0.1658
@<TRIPOS>BOND
     1     2     1    1
     2     2     3    1
     3     3     4    1
     4     4     5   ar
     5     5     6   ar
     6     6     7   ar
     7     7     8   ar
     8     8    13    1
     9    13    14   ar
    10    14    15   ar
    11    15    16   ar
    12    16    17    1
    13    16    18   ar
    14    18    19   ar
    15     5     9    1
    16     9    10    1
    17    10    11   am
    18    11    12    2
    19    11    20    1
    20    20    21   ar
    21    21    22   ar
    22    22    23   ar
    23    23    24   ar
    24    24    27    1
    25    27    28    1
    26    27    29    1
    27    27    30    1
    28    24    25   ar
    29    25    26    1
    30    10     2    1
    31    25    20   ar
    32     8     4   ar
    33    19    13   ar
@<TRIPOS>MOLECULE
*****
 30 33 0 0 0
SMALL
GASTEIGER

@<TRIPOS>ATOM
      1 C         143.0873  142.3765  162.9474 C.3     1  UNL1        0.0219
      2 C         141.9381  141.4449  163.1953 C.3     1  UNL1        0.0820
      3 C         141.1204  140.9396  162.0437 C.3     1  UNL1        0.0671
      4 C         139.9712  140.0080  162.2915 C.ar    1  UNL1        0.0837
      5 C         139.6397  139.5816  163.6909 C.ar    1  UNL1        0.1159
      6 N         138.4572  138.6609  163.6271 N.ar    1  UNL1       -0.1314
      7 N         138.0580  138.5182  162.1883 N.ar    1  UNL1       -0.0576
      8 N         138.9937  139.3507  161.3628 N.ar    1  UNL1       -0.1813
      9 C         140.4573  140.0869  164.8425 C.3     1  UNL1        0.1426
     10 N         141.6065  141.0185  164.5946 N.am    1  UNL1       -0.2715
     11 C         142.4242  141.5238  165.7463 C.2     1  UNL1        0.2514
     12 O         143.5734  142.4555  165.4985 O.2     1  UNL1       -0.2698
     13 C         138.9581  139.4998  159.8707 C.ar    1  UNL1        0.2543
     14 N         139.7735  138.5848  159.0059 N.ar    1  UNL1       -0.2060
     15 C         139.7379  138.7339  157.5136 C.ar    1  UNL1        0.1332
     16 C         138.8870  139.7979  156.8864 C.ar    1  UNL1        0.1784
     17 F         138.8514  139.9470  155.3942 F       1  UNL1       -0.2009
     18 C         138.0716  140.7130  157.7512 C.ar    1  UNL1        0.1332
     19 N         138.1071  140.5639  159.2433 N.ar    1  UNL1       -0.2060
     20 C         142.0926  141.0975  167.1457 C.ar    1  UNL1        0.0809
     21 C         142.6775  139.8337  167.7031 C.ar    1  UNL1        0.0068
     22 C         142.3459  139.4073  169.1025 C.ar    1  UNL1        0.0002
     23 C         141.4295  140.2447  169.9444 C.ar    1  UNL1        0.0061
     24 C         140.8446  141.5085  169.3870 C.ar    1  UNL1        0.0989
     25 C         141.1762  141.9349  167.9876 C.ar    1  UNL1        0.1483
     26 F         140.5913  143.1987  167.4301 F       1  UNL1       -0.2041
     27 C         139.9281  142.3460  170.2288 C.3     1  UNL1        0.4207
     28 F         139.0116  143.1835  171.0707 F       1  UNL1       -0.1658
     29 F         138.8715  141.2857  170.1331 F       1  UNL1       -0.1658
     30 F         140.9849  143.4063  170.3245 F       1  UNL1       -0.1658
@<TRIPOS>BOND
     1     2     1    1
     2     2     3    1
     3     3     4    1
     4     4     5   ar
     5     5     6   ar
     6     6     7   ar
     7     7     8   ar
     8     8    13    1
     9    13    14   ar
    10    14    15   ar
    11    15    16   ar
    12    16    17    1
    13    16    18   ar
    14    18    19   ar
    15     5     9    1
    16     9    10    1
    17    10    11   am
    18    11    12    2
    19    11    20    1
    20    20    21   ar
    21    21    22   ar
    22    22    23   ar
    23    23    24   ar
    24    24    27    1
    25    27    28    1
    26    27    29    1
    27    27    30    1
    28    24    25   ar
    29    25    26    1
    30    10     2    1
    31    25    20   ar
    32     8     4   ar
    33    19    13   ar
@<TRIPOS>MOLECULE
*****
 30 33 0 0 0
SMALL
GASTEIGER

@<TRIPOS>ATOM
      1 C         137.4646  141.8034  163.0640 C.3     1  UNL1        0.0219
      2 C         138.8991  142.1573  162.8048 C.3     1  UNL1        0.0820
      3 C         139.2870  142.8202  161.5164 C.3     1  UNL1        0.0671
      4 C         140.7214  143.1740  161.2572 C.ar    1  UNL1        0.0837
      5 C         141.7680  142.8649  162.2865 C.ar    1  UNL1        0.1159
      6 N         143.0920  143.3277  161.7548 N.ar    1  UNL1       -0.1314
      7 N         142.8638  143.9228  160.3969 N.ar    1  UNL1       -0.0576
      8 N         141.3987  143.8278  160.0894 N.ar    1  UNL1       -0.1813
      9 C         141.3800  142.2020  163.5749 C.3     1  UNL1        0.1426
     10 N         139.9455  141.8482  163.8340 N.am    1  UNL1       -0.2715
     11 C         139.5576  141.1852  165.1225 C.2     1  UNL1        0.2514
     12 O         138.1231  140.8314  165.3817 O.2     1  UNL1       -0.2698
     13 C         140.7286  144.3032  158.8344 C.ar    1  UNL1        0.2543
     14 N         139.8948  143.3555  158.0243 N.ar    1  UNL1       -0.2060
     15 C         139.2246  143.8308  156.7692 C.ar    1  UNL1        0.1332
     16 C         139.3884  145.2539  156.3245 C.ar    1  UNL1        0.1784
     17 F         138.7183  145.7293  155.0695 F       1  UNL1       -0.2009
     18 C         140.2223  146.2017  157.1347 C.ar    1  UNL1        0.1332
     19 N         140.8924  145.7264  158.3896 N.ar    1  UNL1       -0.2060
     20 C         140.6041  140.8761  166.1517 C.ar    1  UNL1        0.0809
     21 C         141.3181  139.5573  166.1227 C.ar    1  UNL1        0.0068
     22 C         142.3646  139.2482  167.1519 C.ar    1  UNL1        0.0002
     23 C         142.6971  140.2579  168.2102 C.ar    1  UNL1        0.0061
     24 C         141.9831  141.5767  168.2392 C.ar    1  UNL1        0.0989
     25 C         140.9365  141.8858  167.2100 C.ar    1  UNL1        0.1483
     26 F         140.2225  143.2046  167.2390 F       1  UNL1       -0.2041
     27 C         142.3155  142.5866  169.2974 C.3     1  UNL1        0.4207
     28 F         142.6477  143.5963  170.3557 F       1  UNL1       -0.1658
     29 F         140.9359  142.4421  169.8684 F       1  UNL1       -0.1658
     30 F         143.6949  142.7309  168.7264 F       1  UNL1       -0.1658
@<TRIPOS>BOND
     1     2     1    1
     2     2     3    1
     3     3     4    1
     4     4     5   ar
     5     5     6   ar
     6     6     7   ar
     7     7     8   ar
     8     8    13    1
     9    13    14   ar
    10    14    15   ar
    11    15    16   ar
    12    16    17    1
    13    16    18   ar
    14    18    19   ar
    15     5     9    1
    16     9    10    1
    17    10    11   am
    18    11    12    2
    19    11    20    1
    20    20    21   ar
    21    21    22   ar
    22    22    23   ar
    23    23    24   ar
    24    24    27    1
    25    27    28    1
    26    27    29    1
    27    27    30    1
    28    24    25   ar
    29    25    26    1
    30    10     2    1
    31    25    20   ar
    32     8     4   ar
    33    19    13   ar
@<TRIPOS>MOLECULE
*****
 30 33 0 0 0
SMALL
GASTEIGER

@<TRIPOS>ATOM
      1 C         137.3864  141.8194  162.7361 C.3     1  UNL1        0.0219
      2 C         138.7716  142.3260  162.4630 C.3     1  UNL1        0.0820
      3 C         139.0836  142.9875  161.1534 C.3     1  UNL1        0.0671
      4 C         140.4687  143.4942  160.8803 C.ar    1  UNL1        0.0837
      5 C         141.5419  143.3393  161.9167 C.ar    1  UNL1        0.1159
      6 N         142.8055  143.9329  161.3680 N.ar    1  UNL1       -0.1314
      7 N         142.5132  144.4546  159.9924 N.ar    1  UNL1       -0.0576
      8 N         141.0690  144.1835  159.6909 N.ar    1  UNL1       -0.1813
      9 C         141.2300  142.6778  163.2264 C.3     1  UNL1        0.1426
     10 N         139.8447  142.1712  163.4994 N.am    1  UNL1       -0.2715
     11 C         139.5327  141.5096  164.8091 C.2     1  UNL1        0.2514
     12 O         138.1476  141.0030  165.0822 O.2     1  UNL1       -0.2698
     13 C         140.3512  144.5392  158.4228 C.ar    1  UNL1        0.2543
     14 N         139.6086  143.4826  157.6597 N.ar    1  UNL1       -0.2060
     15 C         138.8908  143.8383  156.3915 C.ar    1  UNL1        0.1332
     16 C         138.9155  145.2504  155.8865 C.ar    1  UNL1        0.1784
     17 F         138.1977  145.6061  154.6183 F       1  UNL1       -0.2009
     18 C         139.6581  146.3070  156.6496 C.ar    1  UNL1        0.1332
     19 N         140.3759  145.9514  157.9177 N.ar    1  UNL1       -0.2060
     20 C         140.6059  141.3548  165.8456 C.ar    1  UNL1        0.0809
     21 C         140.8519  142.4505  166.8400 C.ar    1  UNL1        0.0068
     22 C         141.9251  142.2957  167.8765 C.ar    1  UNL1        0.0002
     23 C         142.7523  141.0451  167.9185 C.ar    1  UNL1        0.0061
     24 C         142.5063  139.9494  166.9241 C.ar    1  UNL1        0.0989
     25 C         141.4331  140.1042  165.8877 C.ar    1  UNL1        0.1483
     26 F         141.1871  139.0085  164.8933 F       1  UNL1       -0.2041
     27 C         143.3335  138.6987  166.9661 C.3     1  UNL1        0.4207
     28 F         144.1606  137.4481  167.0082 F       1  UNL1       -0.1658
     29 F         142.9353  138.4835  168.3962 F       1  UNL1       -0.1658
     30 F         143.7316  138.9140  165.5361 F       1  UNL1       -0.1658
@<TRIPOS>BOND
     1     2     1    1
     2     2     3    1
     3     3     4    1
     4     4     5   ar
     5     5     6   ar
     6     6     7   ar
     7     7     8   ar
     8     8    13    1
     9    13    14   ar
    10    14    15   ar
    11    15    16   ar
    12    16    17    1
    13    16    18   ar
    14    18    19   ar
    15     5     9    1
    16     9    10    1
    17    10    11   am
    18    11    12    2
    19    11    20    1
    20    20    21   ar
    21    21    22   ar
    22    22    23   ar
    23    23    24   ar
    24    24    27    1
    25    27    28    1
    26    27    29    1
    27    27    30    1
    28    24    25   ar
    29    25    26    1
    30    10     2    1
    31    25    20   ar
    32     8     4   ar
    33    19    13   ar
