@<TRIPOS>MOLECULE
*****
 40 45 0 0 0
SMALL
GASTEIGER

@<TRIPOS>ATOM
      1 C         142.8047  135.6154  157.6929 C.ar    1  UNL1        0.2400
      2 N         142.2435  135.1875  156.3693 N.ar    1  UNL1       -0.2090
      3 C         141.5059  136.1740  155.5132 C.ar    1  UNL1        0.1021
      4 C         141.1492  137.6659  155.6779 C.ar    1  UNL1        0.0207
      5 C         141.9178  137.1150  156.8423 C.ar    1  UNL1        0.0221
      6 C         142.6284  137.0296  158.1605 C.ar    1  UNL1        0.1178
      7 N         143.2040  137.4191  159.4898 N.pl3   1  UNL1       -0.2104
      8 S         143.5821  138.2412  160.6861 S.O2    1  UNL1        0.0737
      9 O         144.0448  136.8165  160.7634 O.2     1  UNL1       -0.1499
     10 O         144.3319  137.9186  161.9445 O.2     1  UNL1       -0.1499
     11 C         143.6647  139.7525  161.7070 C.ar    1  UNL1        0.1253
     12 C         144.3974  139.5478  162.9997 C.ar    1  UNL1        0.0202
     13 C         144.5579  140.6892  163.9596 C.ar    1  UNL1        0.0015
     14 C         143.9858  142.0353  163.6267 C.ar    1  UNL1        0.0046
     15 C         143.2531  142.2399  162.3340 C.ar    1  UNL1        0.0547
     16 C         143.0925  141.0986  161.3741 C.ar    1  UNL1        0.0247
     17 C         142.6953  143.6003  162.0371 C.2     1  UNL1        0.2459
     18 O         143.1276  144.3210  163.2796 O.2     1  UNL1       -0.2701
     19 N         141.9953  144.7236  161.3312 N.am    1  UNL1       -0.3009
     20 C         141.2288  145.4879  160.2927 C.3     1  UNL1        0.0898
     21 C         140.4790  145.8104  159.0343 C.3     1  UNL1        0.0230
     22 C         139.8270  145.6563  157.6922 C.3     1  UNL1        0.0232
     23 C         139.3436  145.0421  156.4119 C.3     1  UNL1        0.0908
     24 N         139.0811  144.0346  155.3322 N.pl3   1  UNL1       -0.3074
     25 C         139.7330  144.1887  156.6743 C.3     1  UNL1        0.0908
     26 C         140.2165  144.8028  157.9546 C.3     1  UNL1        0.0232
     27 C         139.0679  142.7426  154.5700 C.ar    1  UNL1        0.0508
     28 C         138.3145  143.6380  153.6315 C.ar    1  UNL1        0.0352
     29 C         137.7988  143.0972  152.3309 C.ar    1  UNL1        0.1001
     30 N         138.0364  141.6610  151.9689 N.ar    1  UNL1       -0.2438
     31 C         138.7898  140.7657  152.9074 C.ar    1  UNL1        0.0825
     32 C         139.1090  139.1662  152.6090 C.ar    1  UNL1        0.0191
     33 C         139.8479  138.1864  153.4715 C.ar    1  UNL1        0.0016
     34 C         140.4058  138.6228  154.7937 C.ar    1  UNL1        0.0017
     35 C         139.7682  139.8818  154.2853 C.ar    1  UNL1        0.0028
     36 C         139.3055  141.3066  154.2080 C.ar    1  UNL1        0.0310
     37 H         143.5976  136.5566  159.7550 H       1  UNL1        0.1739
     38 H         142.1278  145.4392  161.9942 H       1  UNL1        0.1497
     39 C         144.2109  133.4426  157.9200 C.3     1  UNL1        0.2543
     40 O         143.5423  134.6288  158.5490 O.3     1  UNL1       -0.4553
@<TRIPOS>BOND
     1    39    40    1
     2    40     1    1
     3     1     2   ar
     4     2     3   ar
     5     3     4   ar
     6     4     5   ar
     7     5     6   ar
     8     6     7    1
     9     7     8    1
    10     8     9    2
    11     8    10    2
    12     8    11    1
    13    11    12   ar
    14    12    13   ar
    15    13    14   ar
    16    14    15   ar
    17    15    16   ar
    18    15    17    1
    19    17    18    2
    20    17    19   am
    21    19    20    1
    22    20    21    1
    23    21    22    1
    24    22    23    1
    25    23    24    1
    26    24    25    1
    27    25    26    1
    28    24    27    1
    29    27    28   ar
    30    28    29   ar
    31    29    30   ar
    32    30    31   ar
    33    31    32   ar
    34    32    33   ar
    35    33    34   ar
    36    34    35   ar
    37    35    36   ar
    38     6     1   ar
    39    16    11   ar
    40    26    21    1
    41    36    27   ar
    42    34     4    1
    43    36    31   ar
    44     7    37    1
    45    19    38    1
@<TRIPOS>MOLECULE
*****
 40 45 0 0 0
SMALL
GASTEIGER

@<TRIPOS>ATOM
      1 C         139.2808  146.8315  156.8085 C.ar    1  UNL1        0.2400
      2 N         139.1956  146.7507  155.3131 N.ar    1  UNL1       -0.2090
      3 C         139.5985  145.4906  154.6059 C.ar    1  UNL1        0.1021
      4 C         140.1307  144.1252  155.0882 C.ar    1  UNL1        0.0207
      5 C         139.8695  145.0828  156.2128 C.ar    1  UNL1        0.0221
      6 C         139.7688  145.6524  157.5968 C.ar    1  UNL1        0.1178
      7 N         139.8398  145.7720  159.0903 N.pl3   1  UNL1       -0.2104
      8 S         140.0746  145.4288  160.5315 S.O2    1  UNL1        0.0737
      9 O         139.5540  146.8195  160.3204 O.2     1  UNL1       -0.1499
     10 O         139.8912  146.2029  161.8031 O.2     1  UNL1       -0.1499
     11 C         140.5686  144.3617  161.9280 C.ar    1  UNL1        0.1253
     12 C         140.4261  145.0358  163.2603 C.ar    1  UNL1        0.0202
     13 C         140.7892  144.2998  164.5159 C.ar    1  UNL1        0.0015
     14 C         141.2948  142.8897  164.4391 C.ar    1  UNL1        0.0046
     15 C         141.4373  142.2155  163.1068 C.ar    1  UNL1        0.0547
     16 C         141.0742  142.9515  161.8512 C.ar    1  UNL1        0.0247
     17 C         141.9462  140.8050  163.0711 C.2     1  UNL1        0.2459
     18 O         142.1418  140.5759  164.5406 O.2     1  UNL1       -0.2701
     19 N         142.3908  139.4698  162.5519 N.am    1  UNL1       -0.3009
     20 C         142.7228  138.3547  161.6051 C.3     1  UNL1        0.0898
     21 C         142.9062  137.5805  160.3334 C.3     1  UNL1        0.0230
     22 C         142.9212  137.2312  158.8747 C.3     1  UNL1        0.0232
     23 C         142.7662  137.3446  157.3871 C.3     1  UNL1        0.0908
     24 N         142.4580  137.9082  156.0317 N.pl3   1  UNL1       -0.3074
     25 C         142.4429  138.2576  157.4904 C.3     1  UNL1        0.0908
     26 C         142.5979  138.1443  158.9780 C.3     1  UNL1        0.0232
     27 C         142.0299  138.8613  154.9553 C.ar    1  UNL1        0.0508
     28 C         142.4041  137.6579  154.1418 C.ar    1  UNL1        0.0352
     29 C         142.2767  137.6936  152.6476 C.ar    1  UNL1        0.1001
     30 N         141.7752  138.9328  151.9670 N.ar    1  UNL1       -0.2438
     31 C         141.4010  140.1361  152.7806 C.ar    1  UNL1        0.0825
     32 C         140.8368  141.5549  152.1341 C.ar    1  UNL1        0.0191
     33 C         140.4360  142.8110  152.8494 C.ar    1  UNL1        0.0016
     34 C         140.5244  142.8831  154.3450 C.ar    1  UNL1        0.0017
     35 C         141.0077  141.4912  154.0637 C.ar    1  UNL1        0.0028
     36 C         141.5283  140.1004  154.2748 C.ar    1  UNL1        0.0310
     37 H         139.5131  146.6948  159.1947 H       1  UNL1        0.1739
     38 H         142.6152  139.0310  163.4041 H       1  UNL1        0.1497
     39 C         138.4616  149.2956  156.7238 C.3     1  UNL1        0.2543
     40 O         138.8779  148.0915  157.5156 O.3     1  UNL1       -0.4553
@<TRIPOS>BOND
     1    39    40    1
     2    40     1    1
     3     1     2   ar
     4     2     3   ar
     5     3     4   ar
     6     4     5   ar
     7     5     6   ar
     8     6     7    1
     9     7     8    1
    10     8     9    2
    11     8    10    2
    12     8    11    1
    13    11    12   ar
    14    12    13   ar
    15    13    14   ar
    16    14    15   ar
    17    15    16   ar
    18    15    17    1
    19    17    18    2
    20    17    19   am
    21    19    20    1
    22    20    21    1
    23    21    22    1
    24    22    23    1
    25    23    24    1
    26    24    25    1
    27    25    26    1
    28    24    27    1
    29    27    28   ar
    30    28    29   ar
    31    29    30   ar
    32    30    31   ar
    33    31    32   ar
    34    32    33   ar
    35    33    34   ar
    36    34    35   ar
    37    35    36   ar
    38     6     1   ar
    39    16    11   ar
    40    26    21    1
    41    36    27   ar
    42    34     4    1
    43    36    31   ar
    44     7    37    1
    45    19    38    1
@<TRIPOS>MOLECULE
*****
 40 45 0 0 0
SMALL
GASTEIGER

@<TRIPOS>ATOM
      1 C         139.2456  145.8571  155.9249 C.ar    1  UNL1        0.2400
      2 N         139.0781  145.4542  154.4897 N.ar    1  UNL1       -0.2090
      3 C         139.4624  144.0728  154.0488 C.ar    1  UNL1        0.1021
      4 C         140.0444  142.8467  154.7824 C.ar    1  UNL1        0.0207
      5 C         139.8300  144.0238  155.6871 C.ar    1  UNL1        0.0221
      6 C         139.7974  144.8789  156.9191 C.ar    1  UNL1        0.1178
      7 N         139.9499  145.3193  158.3449 N.pl3   1  UNL1       -0.2104
      8 S         140.2710  145.2972  159.8099 S.O2    1  UNL1        0.0737
      9 O         139.7154  146.6068  159.3345 O.2     1  UNL1       -0.1499
     10 O         140.1458  146.3274  160.8929 O.2     1  UNL1       -0.1499
     11 C         140.8609  144.5600  161.3724 C.ar    1  UNL1        0.1253
     12 C         140.7817  145.5059  162.5339 C.ar    1  UNL1        0.0202
     13 C         141.2273  145.0608  163.8952 C.ar    1  UNL1        0.0015
     14 C         141.7521  143.6699  164.0951 C.ar    1  UNL1        0.0046
     15 C         141.8314  142.7240  162.9336 C.ar    1  UNL1        0.0547
     16 C         141.3858  143.1691  161.5723 C.ar    1  UNL1        0.0247
     17 C         142.3618  141.3417  163.1735 C.2     1  UNL1        0.2459
     18 O         142.6434  141.4369  164.6438 O.2     1  UNL1       -0.2701
     19 N         142.7995  139.9279  162.9295 N.am    1  UNL1       -0.3009
     20 C         143.0972  138.6359  162.2279 C.3     1  UNL1        0.0898
     21 C         143.2224  137.6057  161.1448 C.3     1  UNL1        0.0230
     22 C         143.1616  136.9490  159.7975 C.3     1  UNL1        0.0232
     23 C         142.9215  136.7370  158.3322 C.3     1  UNL1        0.0908
     24 N         142.5280  136.9925  156.9075 N.pl3   1  UNL1       -0.3074
     25 C         142.5888  137.6492  158.2547 C.3     1  UNL1        0.0908
     26 C         142.8289  137.8613  159.7201 C.3     1  UNL1        0.0232
     27 C         142.0238  137.6880  155.6777 C.ar    1  UNL1        0.0508
     28 C         142.3726  136.3388  155.1225 C.ar    1  UNL1        0.0352
     29 C         142.1610  136.0497  153.6659 C.ar    1  UNL1        0.1001
     30 N         141.6007  137.1097  152.7645 N.ar    1  UNL1       -0.2438
     31 C         141.2520  138.4588  153.3197 C.ar    1  UNL1        0.0825
     32 C         140.6280  139.7014  152.4164 C.ar    1  UNL1        0.0191
     33 C         140.2463  141.0806  152.8660 C.ar    1  UNL1        0.0016
     34 C         140.4171  141.4751  154.3031 C.ar    1  UNL1        0.0017
     35 C         140.9079  140.0576  154.3009 C.ar    1  UNL1        0.0028
     36 C         141.4636  138.7479  154.7763 C.ar    1  UNL1        0.0310
     37 H         139.6136  146.2412  158.2665 H       1  UNL1        0.1739
     38 H         143.0790  139.6850  163.8418 H       1  UNL1        0.1497
     39 C         138.9864  148.3913  155.4144 C.3     1  UNL1        0.2543
     40 O         138.8612  147.2384  156.3657 O.3     1  UNL1       -0.4553
@<TRIPOS>BOND
     1    39    40    1
     2    40     1    1
     3     1     2   ar
     4     2     3   ar
     5     3     4   ar
     6     4     5   ar
     7     5     6   ar
     8     6     7    1
     9     7     8    1
    10     8     9    2
    11     8    10    2
    12     8    11    1
    13    11    12   ar
    14    12    13   ar
    15    13    14   ar
    16    14    15   ar
    17    15    16   ar
    18    15    17    1
    19    17    18    2
    20    17    19   am
    21    19    20    1
    22    20    21    1
    23    21    22    1
    24    22    23    1
    25    23    24    1
    26    24    25    1
    27    25    26    1
    28    24    27    1
    29    27    28   ar
    30    28    29   ar
    31    29    30   ar
    32    30    31   ar
    33    31    32   ar
    34    32    33   ar
    35    33    34   ar
    36    34    35   ar
    37    35    36   ar
    38     6     1   ar
    39    16    11   ar
    40    26    21    1
    41    36    27   ar
    42    34     4    1
    43    36    31   ar
    44     7    37    1
    45    19    38    1
@<TRIPOS>MOLECULE
*****
 40 45 0 0 0
SMALL
GASTEIGER

@<TRIPOS>ATOM
      1 C         142.9937  137.0444  156.7343 C.ar    1  UNL1        0.2400
      2 N         143.0601  137.3388  155.2650 N.ar    1  UNL1       -0.2090
      3 C         142.7132  138.7072  154.7579 C.ar    1  UNL1        0.1021
      4 C         142.2609  140.0121  155.4456 C.ar    1  UNL1        0.0207
      5 C         142.4886  138.8884  156.4127 C.ar    1  UNL1        0.0221
      6 C         142.5804  138.1182  157.6965 C.ar    1  UNL1        0.1178
      7 N         142.5261  137.7850  159.1581 N.pl3   1  UNL1       -0.2104
      8 S         142.3317  137.9248  160.6388 S.O2    1  UNL1        0.0737
      9 O         142.7753  136.5558  160.2160 O.2     1  UNL1       -0.1499
     10 O         142.4937  136.9647  161.7798 O.2     1  UNL1       -0.1499
     11 C         141.9159  138.7993  162.1865 C.ar    1  UNL1        0.1253
     12 C         142.0431  137.9312  163.4031 C.ar    1  UNL1        0.0202
     13 C         141.7385  138.4926  164.7602 C.ar    1  UNL1        0.0015
     14 C         141.3065  139.9222  164.9008 C.ar    1  UNL1        0.0046
     15 C         141.1792  140.7903  163.6842 C.ar    1  UNL1        0.0547
     16 C         141.4839  140.2289  162.3271 C.ar    1  UNL1        0.0247
     17 C         140.7446  142.2144  163.8656 C.2     1  UNL1        0.2459
     18 O         140.5838  142.2355  165.3568 O.2     1  UNL1       -0.2701
     19 N         140.3629  143.6317  163.5562 N.am    1  UNL1       -0.3009
     20 C         140.0755  144.8885  162.7894 C.3     1  UNL1        0.0898
     21 C         139.9135  145.8485  161.6483 C.3     1  UNL1        0.0230
     22 C         139.8945  146.4079  160.2566 C.3     1  UNL1        0.0232
     23 C         140.0206  146.5059  158.7652 C.3     1  UNL1        0.0908
     24 N         140.2781  146.1320  157.3356 N.pl3   1  UNL1       -0.3074
     25 C         140.2970  145.5726  158.7272 C.3     1  UNL1        0.0908
     26 C         140.1710  145.4746  160.2187 C.3     1  UNL1        0.0232
     27 C         140.6390  145.3266  156.1226 C.ar    1  UNL1        0.0508
     28 C         140.3161  146.6532  155.5013 C.ar    1  UNL1        0.0352
     29 C         140.4185  146.8303  154.0154 C.ar    1  UNL1        0.1001
     30 N         140.8439  145.6807  153.1506 N.ar    1  UNL1       -0.2438
     31 C         141.1667  144.3542  153.7719 C.ar    1  UNL1        0.0825
     32 C         141.6456  143.0189  152.9133 C.ar    1  UNL1        0.0191
     33 C         141.9908  141.6534  153.4291 C.ar    1  UNL1        0.0016
     34 C         141.9217  141.3676  154.9000 C.ar    1  UNL1        0.0017
     35 C         141.5079  142.8080  154.8350 C.ar    1  UNL1        0.0028
     36 C         141.0643  144.1771  155.2579 C.ar    1  UNL1        0.0310
     37 H         142.8055  136.8417  159.1197 H       1  UNL1        0.1739
     38 H         140.1749  143.9516  164.4681 H       1  UNL1        0.1497
     39 C         143.7325  134.5958  156.2771 C.3     1  UNL1        0.2543
     40 O         143.3407  135.6759  157.2413 O.3     1  UNL1       -0.4553
@<TRIPOS>BOND
     1    39    40    1
     2    40     1    1
     3     1     2   ar
     4     2     3   ar
     5     3     4   ar
     6     4     5   ar
     7     5     6   ar
     8     6     7    1
     9     7     8    1
    10     8     9    2
    11     8    10    2
    12     8    11    1
    13    11    12   ar
    14    12    13   ar
    15    13    14   ar
    16    14    15   ar
    17    15    16   ar
    18    15    17    1
    19    17    18    2
    20    17    19   am
    21    19    20    1
    22    20    21    1
    23    21    22    1
    24    22    23    1
    25    23    24    1
    26    24    25    1
    27    25    26    1
    28    24    27    1
    29    27    28   ar
    30    28    29   ar
    31    29    30   ar
    32    30    31   ar
    33    31    32   ar
    34    32    33   ar
    35    33    34   ar
    36    34    35   ar
    37    35    36   ar
    38     6     1   ar
    39    16    11   ar
    40    26    21    1
    41    36    27   ar
    42    34     4    1
    43    36    31   ar
    44     7    37    1
    45    19    38    1
@<TRIPOS>MOLECULE
*****
 40 45 0 0 0
SMALL
GASTEIGER

@<TRIPOS>ATOM
      1 C         140.0997  145.8226  155.2267 C.ar    1  UNL1        0.2400
      2 N         139.7377  146.8939  156.2123 N.ar    1  UNL1       -0.2090
      3 C         139.8164  146.6162  157.6844 C.ar    1  UNL1        0.1021
      4 C         140.2176  145.3777  158.5121 C.ar    1  UNL1        0.0207
      5 C         140.3064  145.1477  157.0326 C.ar    1  UNL1        0.0221
      6 C         140.5402  144.4738  155.7130 C.ar    1  UNL1        0.1178
      7 N         140.8937  143.4288  154.6966 N.pl3   1  UNL1       -0.2104
      8 S         141.3286  142.1261  154.0934 S.O2    1  UNL1        0.0737
      9 O         140.9908  143.1773  153.0781 O.2     1  UNL1       -0.1499
     10 O         141.4921  141.6680  152.6746 O.2     1  UNL1       -0.1499
     11 C         141.9002  140.3924  154.1137 C.ar    1  UNL1        0.1253
     12 C         142.0996  139.8244  152.7398 C.ar    1  UNL1        0.0202
     13 C         142.5678  138.4091  152.5741 C.ar    1  UNL1        0.0015
     14 C         142.8367  137.5617  153.7823 C.ar    1  UNL1        0.0046
     15 C         142.6373  138.1297  155.1562 C.ar    1  UNL1        0.0547
     16 C         142.1691  139.5450  155.3219 C.ar    1  UNL1        0.0247
     17 C         142.9167  137.2511  156.3394 C.2     1  UNL1        0.2459
     18 O         143.3354  136.0004  155.6249 O.2     1  UNL1       -0.2701
     19 N         143.0583  136.7842  157.7578 N.am    1  UNL1       -0.3009
     20 C         143.0467  136.7796  159.2578 C.3     1  UNL1        0.0898
     21 C         142.8831  137.2378  160.6767 C.3     1  UNL1        0.0230
     22 C         142.5854  138.1092  161.8609 C.3     1  UNL1        0.0232
     23 C         142.1858  139.2992  162.6818 C.3     1  UNL1        0.0908
     24 N         141.7275  140.6790  163.0508 N.pl3   1  UNL1       -0.3074
     25 C         142.0252  139.8077  161.8666 C.3     1  UNL1        0.0908
     26 C         142.4249  138.6176  161.0456 C.3     1  UNL1        0.0232
     27 C         141.2602  142.0991  162.9276 C.ar    1  UNL1        0.0508
     28 C         141.3004  141.9378  164.4184 C.ar    1  UNL1        0.0352
     29 C         140.9150  143.0829  165.3073 C.ar    1  UNL1        0.1001
     30 N         140.4894  144.3893  164.7054 N.ar    1  UNL1       -0.2438
     31 C         140.4493  144.5506  163.2147 C.ar    1  UNL1        0.0825
     32 C         139.9955  145.9468  162.4439 C.ar    1  UNL1        0.0191
     33 C         139.9198  146.2157  160.9701 C.ar    1  UNL1        0.0016
     34 C         140.2835  145.1387  159.9915 C.ar    1  UNL1        0.0017
     35 C         140.4969  144.4567  161.3104 C.ar    1  UNL1        0.0028
     36 C         140.8347  143.4055  162.3258 C.ar    1  UNL1        0.0310
     37 H         140.7315  143.9427  153.8727 H       1  UNL1        0.1739
     38 H         143.3637  135.8625  157.5953 H       1  UNL1        0.1497
     39 C         141.0827  146.9247  153.0892 C.3     1  UNL1        0.2543
     40 O         140.0210  146.1003  153.7547 O.3     1  UNL1       -0.4553
@<TRIPOS>BOND
     1    39    40    1
     2    40     1    1
     3     1     2   ar
     4     2     3   ar
     5     3     4   ar
     6     4     5   ar
     7     5     6   ar
     8     6     7    1
     9     7     8    1
    10     8     9    2
    11     8    10    2
    12     8    11    1
    13    11    12   ar
    14    12    13   ar
    15    13    14   ar
    16    14    15   ar
    17    15    16   ar
    18    15    17    1
    19    17    18    2
    20    17    19   am
    21    19    20    1
    22    20    21    1
    23    21    22    1
    24    22    23    1
    25    23    24    1
    26    24    25    1
    27    25    26    1
    28    24    27    1
    29    27    28   ar
    30    28    29   ar
    31    29    30   ar
    32    30    31   ar
    33    31    32   ar
    34    32    33   ar
    35    33    34   ar
    36    34    35   ar
    37    35    36   ar
    38     6     1   ar
    39    16    11   ar
    40    26    21    1
    41    36    27   ar
    42    34     4    1
    43    36    31   ar
    44     7    37    1
    45    19    38    1
@<TRIPOS>MOLECULE
*****
 40 45 0 0 0
SMALL
GASTEIGER

@<TRIPOS>ATOM
      1 C         143.0490  139.9515  162.0035 C.ar    1  UNL1        0.2400
      2 N         142.8259  141.3084  162.6027 N.ar    1  UNL1       -0.2090
      3 C         142.2370  142.4084  161.7699 C.ar    1  UNL1        0.1021
      4 C         141.7585  142.4927  160.3057 C.ar    1  UNL1        0.0207
      5 C         142.2811  141.1359  160.6743 C.ar    1  UNL1        0.0221
      6 C         142.6833  139.6945  160.5717 C.ar    1  UNL1        0.1178
      7 N         142.9215  138.3247  160.0088 N.pl3   1  UNL1       -0.2104
      8 S         142.9700  137.1749  159.0467 S.O2    1  UNL1        0.0737
      9 O         143.4932  136.8405  160.4120 O.2     1  UNL1       -0.1499
     10 O         143.4387  135.7565  159.1815 O.2     1  UNL1       -0.1499
     11 C         142.7263  136.3363  157.4434 C.ar    1  UNL1        0.1253
     12 C         143.1633  134.9015  157.4596 C.ar    1  UNL1        0.0202
     13 C         143.0326  134.0638  156.2222 C.ar    1  UNL1        0.0015
     14 C         142.4649  134.6608  154.9687 C.ar    1  UNL1        0.0046
     15 C         142.0279  136.0957  154.9526 C.ar    1  UNL1        0.0547
     16 C         142.1586  136.9334  156.1899 C.ar    1  UNL1        0.0247
     17 C         141.4654  136.6564  153.6802 C.2     1  UNL1        0.2459
     18 O         141.5625  135.4387  152.8095 O.2     1  UNL1       -0.2701
     19 N         140.8708  137.6178  152.6943 N.am    1  UNL1       -0.3009
     20 C         140.3086  138.8760  152.1018 C.3     1  UNL1        0.0898
     21 C         139.8398  140.2945  151.9670 C.3     1  UNL1        0.0230
     22 C         139.5151  141.7196  152.3043 C.3     1  UNL1        0.0232
     23 C         139.3699  142.9968  153.0774 C.3     1  UNL1        0.0908
     24 N         139.4196  143.9877  154.2023 N.pl3   1  UNL1       -0.3074
     25 C         139.7443  142.5627  153.8649 C.3     1  UNL1        0.0908
     26 C         139.8896  141.2855  153.0919 C.3     1  UNL1        0.0232
     27 C         139.6591  144.5851  155.5573 C.ar    1  UNL1        0.0508
     28 C         139.0790  145.7582  154.8242 C.ar    1  UNL1        0.0352
     29 C         138.9022  147.0703  155.5293 C.ar    1  UNL1        0.1001
     30 N         139.3054  147.2093  156.9674 N.ar    1  UNL1       -0.2438
     31 C         139.8854  146.0362  157.7004 C.ar    1  UNL1        0.0825
     32 C         140.3641  146.0775  159.2874 C.ar    1  UNL1        0.0191
     33 C         140.9524  144.9718  160.1128 C.ar    1  UNL1        0.0016
     34 C         141.1721  143.6179  159.5056 C.ar    1  UNL1        0.0017
     35 C         140.5855  144.3896  158.3608 C.ar    1  UNL1        0.0028
     36 C         140.0623  144.7241  156.9954 C.ar    1  UNL1        0.0310
     37 H         143.2999  137.8860  160.8047 H       1  UNL1        0.1739
     38 H         140.8061  137.0264  151.9099 H       1  UNL1        0.1497
     39 C         144.4278  139.1838  164.0673 C.3     1  UNL1        0.2543
     40 O         143.6379  138.8516  162.8362 O.3     1  UNL1       -0.4553
@<TRIPOS>BOND
     1    39    40    1
     2    40     1    1
     3     1     2   ar
     4     2     3   ar
     5     3     4   ar
     6     4     5   ar
     7     5     6   ar
     8     6     7    1
     9     7     8    1
    10     8     9    2
    11     8    10    2
    12     8    11    1
    13    11    12   ar
    14    12    13   ar
    15    13    14   ar
    16    14    15   ar
    17    15    16   ar
    18    15    17    1
    19    17    18    2
    20    17    19   am
    21    19    20    1
    22    20    21    1
    23    21    22    1
    24    22    23    1
    25    23    24    1
    26    24    25    1
    27    25    26    1
    28    24    27    1
    29    27    28   ar
    30    28    29   ar
    31    29    30   ar
    32    30    31   ar
    33    31    32   ar
    34    32    33   ar
    35    33    34   ar
    36    34    35   ar
    37    35    36   ar
    38     6     1   ar
    39    16    11   ar
    40    26    21    1
    41    36    27   ar
    42    34     4    1
    43    36    31   ar
    44     7    37    1
    45    19    38    1
@<TRIPOS>MOLECULE
*****
 40 45 0 0 0
SMALL
GASTEIGER

@<TRIPOS>ATOM
      1 C         143.4963  139.7032  161.5893 C.ar    1  UNL1        0.2400
      2 N         143.9427  138.2793  161.7414 N.ar    1  UNL1       -0.2090
      3 C         143.7146  137.2989  160.6291 C.ar    1  UNL1        0.1021
      4 C         143.0705  137.4086  159.2315 C.ar    1  UNL1        0.0207
      5 C         143.0572  138.7047  159.9864 C.ar    1  UNL1        0.0221
      6 C         142.8219  140.1469  160.3252 C.ar    1  UNL1        0.1178
      7 N         142.3900  141.5788  160.2110 N.pl3   1  UNL1       -0.2104
      8 S         141.8084  142.8454  159.6564 S.O2    1  UNL1        0.0737
      9 O         142.3755  142.9966  161.0367 O.2     1  UNL1       -0.1499
     10 O         141.6824  144.2334  160.2107 O.2     1  UNL1       -0.1499
     11 C         140.9809  143.8881  158.4070 C.ar    1  UNL1        0.1253
     12 C         140.7996  145.3080  158.8551 C.ar    1  UNL1        0.0202
     13 C         140.1358  146.3016  157.9484 C.ar    1  UNL1        0.0015
     14 C         139.6534  145.8753  156.5936 C.ar    1  UNL1        0.0046
     15 C         139.8347  144.4553  156.1455 C.ar    1  UNL1        0.0547
     16 C         140.4984  143.4617  157.0522 C.ar    1  UNL1        0.0247
     17 C         139.3390  144.0675  154.7840 C.2     1  UNL1        0.2459
     18 O         138.7894  145.3892  154.3355 O.2     1  UNL1       -0.2701
     19 N         139.0242  143.2447  153.5700 N.am    1  UNL1       -0.3009
     20 C         138.9244  142.0758  152.6351 C.3     1  UNL1        0.0898
     21 C         139.0504  140.6877  152.0808 C.3     1  UNL1        0.0230
     22 C         139.3886  139.2307  151.9669 C.3     1  UNL1        0.0232
     23 C         139.9023  137.8629  152.3060 C.3     1  UNL1        0.0908
     24 N         140.5359  136.7323  153.0611 N.pl3   1  UNL1       -0.3074
     25 C         140.1977  138.1892  153.1749 C.3     1  UNL1        0.0908
     26 C         139.6840  139.5571  152.8360 C.3     1  UNL1        0.0232
     27 C         141.2207  135.9614  154.1506 C.ar    1  UNL1        0.0508
     28 C         141.0468  134.8954  153.1096 C.ar    1  UNL1        0.0352
     29 C         141.5347  133.5019  153.3744 C.ar    1  UNL1        0.1001
     30 N         142.1965  133.1744  154.6802 N.ar    1  UNL1       -0.2438
     31 C         142.3703  134.2404  155.7210 C.ar    1  UNL1        0.0825
     32 C         143.0859  133.9900  157.1957 C.ar    1  UNL1        0.0191
     33 C         143.3099  134.9770  158.3028 C.ar    1  UNL1        0.0016
     34 C         142.8603  136.3989  158.1423 C.ar    1  UNL1        0.0017
     35 C         142.4495  135.7852  156.8367 C.ar    1  UNL1        0.0028
     36 C         141.8824  135.6339  155.4562 C.ar    1  UNL1        0.0310
     37 H         142.6885  141.9086  161.0893 H       1  UNL1        0.1739
     38 H         138.5955  143.9344  153.0134 H       1  UNL1        0.1497
     39 C         145.0448  141.3844  162.8246 C.3     1  UNL1        0.2543
     40 O         143.7244  140.6835  162.7016 O.3     1  UNL1       -0.4553
@<TRIPOS>BOND
     1    39    40    1
     2    40     1    1
     3     1     2   ar
     4     2     3   ar
     5     3     4   ar
     6     4     5   ar
     7     5     6   ar
     8     6     7    1
     9     7     8    1
    10     8     9    2
    11     8    10    2
    12     8    11    1
    13    11    12   ar
    14    12    13   ar
    15    13    14   ar
    16    14    15   ar
    17    15    16   ar
    18    15    17    1
    19    17    18    2
    20    17    19   am
    21    19    20    1
    22    20    21    1
    23    21    22    1
    24    22    23    1
    25    23    24    1
    26    24    25    1
    27    25    26    1
    28    24    27    1
    29    27    28   ar
    30    28    29   ar
    31    29    30   ar
    32    30    31   ar
    33    31    32   ar
    34    32    33   ar
    35    33    34   ar
    36    34    35   ar
    37    35    36   ar
    38     6     1   ar
    39    16    11   ar
    40    26    21    1
    41    36    27   ar
    42    34     4    1
    43    36    31   ar
    44     7    37    1
    45    19    38    1
@<TRIPOS>MOLECULE
*****
 40 45 0 0 0
SMALL
GASTEIGER

@<TRIPOS>ATOM
      1 C         142.9543  137.3741  157.2604 C.ar    1  UNL1        0.2400
      2 N         143.1611  136.4660  158.4363 N.ar    1  UNL1       -0.2090
      3 C         142.8813  136.9611  159.8244 C.ar    1  UNL1        0.1021
      4 C         142.3846  138.3066  160.3927 C.ar    1  UNL1        0.0207
      5 C         142.5063  138.3109  158.8976 C.ar    1  UNL1        0.0221
      6 C         142.4678  138.7770  157.4724 C.ar    1  UNL1        0.1178
      7 N         142.2734  139.6544  156.2715 N.pl3   1  UNL1       -0.2104
      8 S         141.9440  140.8481  155.4249 S.O2    1  UNL1        0.0737
      9 O         142.4065  139.6591  154.6361 O.2     1  UNL1       -0.1499
     10 O         141.9862  141.0865  153.9446 O.2     1  UNL1       -0.1499
     11 C         141.3979  142.5605  155.1048 C.ar    1  UNL1        0.1253
     12 C         141.3997  142.9139  153.6471 C.ar    1  UNL1        0.0202
     13 C         140.9778  144.2844  153.2071 C.ar    1  UNL1        0.0015
     14 C         140.5539  145.3015  154.2249 C.ar    1  UNL1        0.0046
     15 C         140.5520  144.9480  155.6827 C.ar    1  UNL1        0.0547
     16 C         140.9740  143.5775  156.1226 C.ar    1  UNL1        0.0247
     17 C         140.1216  145.9921  156.6699 C.2     1  UNL1        0.2459
     18 O         139.8231  147.1178  155.7245 O.2     1  UNL1       -0.2701
     19 N         139.7895  146.6657  157.9683 N.am    1  UNL1       -0.3009
     20 C         139.5916  146.8957  159.4374 C.3     1  UNL1        0.0898
     21 C         139.5494  146.6573  160.9177 C.3     1  UNL1        0.0230
     22 C         139.6674  145.9763  162.2490 C.3     1  UNL1        0.0232
     23 C         139.9330  144.9264  163.2868 C.3     1  UNL1        0.0908
     24 N         140.3172  143.6215  163.9189 N.pl3   1  UNL1       -0.3074
     25 C         140.1991  144.3025  162.5877 C.3     1  UNL1        0.0908
     26 C         139.9336  145.3524  161.5497 C.3     1  UNL1        0.0232
     27 C         140.7785  142.2029  164.0767 C.ar    1  UNL1        0.0508
     28 C         140.5327  142.5860  165.5060 C.ar    1  UNL1        0.0352
     29 C         140.7752  141.5907  166.6017 C.ar    1  UNL1        0.1001
     30 N         141.2636  140.2122  166.2680 N.ar    1  UNL1       -0.2438
     31 C         141.5094  139.8291  164.8388 C.ar    1  UNL1        0.0825
     32 C         142.0480  138.3366  164.3572 C.ar    1  UNL1        0.0191
     33 C         142.3253  137.8500  162.9657 C.ar    1  UNL1        0.0016
     34 C         142.1159  138.7647  161.7955 C.ar    1  UNL1        0.0017
     35 C         141.7294  139.6354  162.9543 C.ar    1  UNL1        0.0028
     36 C         141.2668  140.8244  163.7431 C.ar    1  UNL1        0.0310
     37 H         142.5424  139.0239  155.5648 H       1  UNL1        0.1739
     38 H         139.5218  147.5500  157.6283 H       1  UNL1        0.1497
     39 C         144.0986  135.6705  155.6671 C.3     1  UNL1        0.2543
     40 O         143.2342  136.8790  155.8723 O.3     1  UNL1       -0.4553
@<TRIPOS>BOND
     1    39    40    1
     2    40     1    1
     3     1     2   ar
     4     2     3   ar
     5     3     4   ar
     6     4     5   ar
     7     5     6   ar
     8     6     7    1
     9     7     8    1
    10     8     9    2
    11     8    10    2
    12     8    11    1
    13    11    12   ar
    14    12    13   ar
    15    13    14   ar
    16    14    15   ar
    17    15    16   ar
    18    15    17    1
    19    17    18    2
    20    17    19   am
    21    19    20    1
    22    20    21    1
    23    21    22    1
    24    22    23    1
    25    23    24    1
    26    24    25    1
    27    25    26    1
    28    24    27    1
    29    27    28   ar
    30    28    29   ar
    31    29    30   ar
    32    30    31   ar
    33    31    32   ar
    34    32    33   ar
    35    33    34   ar
    36    34    35   ar
    37    35    36   ar
    38     6     1   ar
    39    16    11   ar
    40    26    21    1
    41    36    27   ar
    42    34     4    1
    43    36    31   ar
    44     7    37    1
    45    19    38    1
@<TRIPOS>MOLECULE
*****
 40 45 0 0 0
SMALL
GASTEIGER

@<TRIPOS>ATOM
      1 C         142.1172  136.3101  155.5443 C.ar    1  UNL1        0.2400
      2 N         142.7831  135.5081  156.6229 N.ar    1  UNL1       -0.2090
      3 C         143.0712  136.1357  157.9546 C.ar    1  UNL1        0.1021
      4 C         142.8260  137.5408  158.5424 C.ar    1  UNL1        0.0207
      5 C         142.3449  137.4049  157.1282 C.ar    1  UNL1        0.0221
      6 C         141.7394  137.7395  155.7972 C.ar    1  UNL1        0.1178
      7 N         141.0752  138.5084  154.6938 N.pl3   1  UNL1       -0.2104
      8 S         140.4241  139.6283  153.9374 S.O2    1  UNL1        0.0737
      9 O         140.5489  138.3597  153.1468 O.2     1  UNL1       -0.1499
     10 O         139.8734  139.7290  152.5459 O.2     1  UNL1       -0.1499
     11 C         139.7772  141.3187  153.6985 C.ar    1  UNL1        0.1253
     12 C         139.1971  141.5370  152.3326 C.ar    1  UNL1        0.0202
     13 C         138.6204  142.8727  151.9675 C.ar    1  UNL1        0.0015
     14 C         138.6238  143.9900  152.9683 C.ar    1  UNL1        0.0046
     15 C         139.2039  143.7716  154.3342 C.ar    1  UNL1        0.0547
     16 C         139.7806  142.4359  154.6993 C.ar    1  UNL1        0.0247
     17 C         139.1889  144.9131  155.3072 C.2     1  UNL1        0.2459
     18 O         138.5277  145.9554  154.4547 O.2     1  UNL1       -0.2701
     19 N         139.3914  145.7117  156.5606 N.am    1  UNL1       -0.3009
     20 C         139.7897  146.0806  157.9590 C.3     1  UNL1        0.0898
     21 C         140.3405  145.9798  159.3506 C.3     1  UNL1        0.0230
     22 C         140.9842  145.4205  160.5847 C.3     1  UNL1        0.0232
     23 C         141.6509  144.4630  161.5274 C.3     1  UNL1        0.0908
     24 N         142.2684  143.2113  162.0767 N.pl3   1  UNL1       -0.3074
     25 C         141.6248  143.7707  160.8426 C.3     1  UNL1        0.0908
     26 C         140.9581  144.7281  159.8999 C.3     1  UNL1        0.0232
     27 C         142.7699  141.8008  162.1730 C.ar    1  UNL1        0.0508
     28 C         143.1068  142.3198  163.5395 C.ar    1  UNL1        0.0352
     29 C         143.7747  141.4226  164.5389 C.ar    1  UNL1        0.1001
     30 N         144.1057  140.0063  164.1718 N.ar    1  UNL1       -0.2438
     31 C         143.7688  139.4874  162.8054 C.ar    1  UNL1        0.0825
     32 C         144.0886  137.9428  162.2942 C.ar    1  UNL1        0.0191
     33 C         143.7968  137.3233  160.9596 C.ar    1  UNL1        0.0016
     34 C         143.1306  138.1326  159.8867 C.ar    1  UNL1        0.0017
     35 C         143.2257  139.1160  161.0153 C.ar    1  UNL1        0.0028
     36 C         143.1009  140.3846  161.8060 C.ar    1  UNL1        0.0310
     37 H         141.0488  137.8087  154.0018 H       1  UNL1        0.1739
     38 H         139.0013  146.5682  156.2720 H       1  UNL1        0.1497
     39 C         142.1689  134.2413  153.9735 C.3     1  UNL1        0.2543
     40 O         141.8291  135.6826  154.2126 O.3     1  UNL1       -0.4553
@<TRIPOS>BOND
     1    39    40    1
     2    40     1    1
     3     1     2   ar
     4     2     3   ar
     5     3     4   ar
     6     4     5   ar
     7     5     6   ar
     8     6     7    1
     9     7     8    1
    10     8     9    2
    11     8    10    2
    12     8    11    1
    13    11    12   ar
    14    12    13   ar
    15    13    14   ar
    16    14    15   ar
    17    15    16   ar
    18    15    17    1
    19    17    18    2
    20    17    19   am
    21    19    20    1
    22    20    21    1
    23    21    22    1
    24    22    23    1
    25    23    24    1
    26    24    25    1
    27    25    26    1
    28    24    27    1
    29    27    28   ar
    30    28    29   ar
    31    29    30   ar
    32    30    31   ar
    33    31    32   ar
    34    32    33   ar
    35    33    34   ar
    36    34    35   ar
    37    35    36   ar
    38     6     1   ar
    39    16    11   ar
    40    26    21    1
    41    36    27   ar
    42    34     4    1
    43    36    31   ar
    44     7    37    1
    45    19    38    1
