@<TRIPOS>MOLECULE
*****
 35 39 0 0 0
SMALL
GASTEIGER

@<TRIPOS>ATOM
      1 C         141.5560  137.9629  161.6562 C.3     1  UNL1        0.0769
      2 N         142.2702  139.2815  161.6902 N.3     1  UNL1       -0.2700
      3 C         141.5721  140.5247  161.2241 C.3     1  UNL1        0.0897
      4 C         142.2863  141.8434  161.2581 C.3     1  UNL1        0.0897
      5 N         143.6985  141.9188  161.7583 N.3     1  UNL1       -0.2700
      6 C         144.3964  140.6756  162.2244 C.3     1  UNL1        0.0897
      7 C         143.6823  139.3570  162.1904 C.3     1  UNL1        0.0897
      8 C         144.4126  143.2374  161.7923 C.3     1  UNL1        0.0769
      9 C         144.0872  144.2392  162.8604 C.3     1  UNL1        0.0437
     10 C         142.7058  144.2931  163.4423 C.ar    1  UNL1       -0.0204
     11 C         141.6875  145.2347  162.8711 C.ar    1  UNL1        0.0021
     12 C         140.3060  145.2886  163.4530 C.ar    1  UNL1        0.0749
     13 C         139.9428  144.4008  164.6062 C.ar    1  UNL1        0.2900
     14 C         140.9612  143.4591  165.1775 C.ar    1  UNL1        0.0749
     15 C         142.3426  143.4053  164.5956 C.ar    1  UNL1        0.0021
     16 N         138.5614  144.4547  165.1881 N.pl3   1  UNL1        0.0809
     17 O         138.2339  145.4614  166.2509 O.2     1  UNL1        0.0415
     18 O         137.5074  143.5018  164.7074 O.co2   1  UNL1       -0.5760
     19 C         141.2133  137.2622  162.9375 C.3     1  UNL1        0.0437
     20 C         140.7572  139.6236  166.7408 C.ar    1  UNL1       -0.0002
     21 C         139.6083  139.5159  165.7826 C.ar    1  UNL1       -0.0003
     22 C         139.7603  138.7288  164.5148 C.ar    1  UNL1       -0.0042
     23 C         141.0613  138.0494  164.2052 C.ar    1  UNL1       -0.0208
     24 C         142.2102  138.1571  165.1635 C.ar    1  UNL1       -0.0042
     25 C         142.0581  138.9442  166.4313 C.ar    1  UNL1       -0.0003
     26 O         143.0356  143.9267  171.0156 O.2     1  UNL1       -0.2449
     27 C         142.7660  142.9828  169.8814 C.2     1  UNL1        0.3413
     28 O         143.6770  142.7174  168.7197 O.3     1  UNL1       -0.4404
     29 C         143.0120  141.7092  167.8301 C.3     1  UNL1        0.2356
     30 C         141.6900  141.3515  168.4420 C.ar    1  UNL1        0.0275
     31 C         141.5380  142.1386  169.7098 C.ar    1  UNL1        0.0752
     32 C         140.3010  141.9850  170.5442 C.ar    1  UNL1        0.0062
     33 C         139.2161  141.0443  170.1108 C.ar    1  UNL1        0.0002
     34 C         139.3682  140.2571  168.8430 C.ar    1  UNL1       -0.0002
     35 C         140.6051  140.4108  168.0086 C.ar    1  UNL1       -0.0003
@<TRIPOS>UNITY_ATOM_ATTR
16 1
charge 1
18 1
charge -1
@<TRIPOS>BOND
     1    26    27    2
     2    27    28    1
     3    28    29    1
     4    29    30    1
     5    30    31   ar
     6    31    32   ar
     7    32    33   ar
     8    33    34   ar
     9    34    35   ar
    10    35    20    1
    11    20    21   ar
    12    21    22   ar
    13    22    23   ar
    14    23    19    1
    15    19     1    1
    16     1     2    1
    17     2     3    1
    18     3     4    1
    19     4     5    1
    20     5     8    1
    21     8     9    1
    22     9    10    1
    23    10    11   ar
    24    11    12   ar
    25    12    13   ar
    26    13    16    1
    27    16    17    2
    28    16    18    1
    29    13    14   ar
    30    14    15   ar
    31     5     6    1
    32     6     7    1
    33    23    24   ar
    34    24    25   ar
    35    31    27    1
    36    25    20   ar
    37    35    30   ar
    38     7     2    1
    39    15    10   ar
@<TRIPOS>MOLECULE
*****
 35 39 0 0 0
SMALL
GASTEIGER

@<TRIPOS>ATOM
      1 C         140.0373  145.2437  161.2694 C.3     1  UNL1        0.0769
      2 N         139.8352  143.7734  161.0516 N.3     1  UNL1       -0.2700
      3 C         138.4694  143.1730  161.2071 C.3     1  UNL1        0.0897
      4 C         138.2672  141.7027  160.9893 C.3     1  UNL1        0.0897
      5 N         139.4309  140.8329  160.6159 N.3     1  UNL1       -0.2700
      6 C         140.7966  141.4333  160.4604 C.3     1  UNL1        0.0897
      7 C         140.9988  142.9036  160.6782 C.3     1  UNL1        0.0897
      8 C         139.2287  139.3626  160.3981 C.3     1  UNL1        0.0769
      9 C         139.7626  138.3764  161.3944 C.3     1  UNL1        0.0437
     10 C         139.3292  138.4499  162.8286 C.ar    1  UNL1       -0.0204
     11 C         139.1910  139.7825  163.5030 C.ar    1  UNL1        0.0021
     12 C         138.7576  139.8560  164.9371 C.ar    1  UNL1        0.0749
     13 C         138.4624  138.5968  165.6969 C.ar    1  UNL1        0.2900
     14 C         138.6006  137.2641  165.0224 C.ar    1  UNL1        0.0749
     15 C         139.0340  137.1906  163.5883 C.ar    1  UNL1        0.0021
     16 N         138.0290  138.6703  167.1310 N.pl3   1  UNL1        0.0809
     17 O         138.7709  139.5484  168.0947 O.2     1  UNL1        0.0415
     18 O         136.8538  137.8656  167.6015 O.co2   1  UNL1       -0.5760
     19 C         140.5018  145.7473  162.6037 C.3     1  UNL1        0.0437
     20 C         141.2507  142.8511  165.9655 C.ar    1  UNL1       -0.0002
     21 C         139.8716  143.3954  165.7376 C.ar    1  UNL1       -0.0003
     22 C         139.6220  144.3608  164.6170 C.ar    1  UNL1       -0.0042
     23 C         140.7514  144.7819  163.7243 C.ar    1  UNL1       -0.0208
     24 C         142.1305  144.2376  163.9522 C.ar    1  UNL1       -0.0042
     25 C         142.3801  143.2722  165.0728 C.ar    1  UNL1       -0.0003
     26 O         140.8124  141.2417  172.2264 O.2     1  UNL1       -0.2449
     27 C         140.7751  141.8662  170.8631 C.2     1  UNL1        0.3413
     28 O         140.1925  143.2059  170.5226 O.3     1  UNL1       -0.4404
     29 C         140.3712  143.4282  169.0500 C.3     1  UNL1        0.2356
     30 C         141.0643  142.2260  168.4803 C.ar    1  UNL1        0.0275
     31 C         141.3139  141.2606  169.6009 C.ar    1  UNL1        0.0752
     32 C         141.9995  139.9549  169.3272 C.ar    1  UNL1        0.0062
     33 C         142.4355  139.6146  167.9330 C.ar    1  UNL1        0.0002
     34 C         142.1859  140.5800  166.8124 C.ar    1  UNL1       -0.0002
     35 C         141.5003  141.8857  167.0861 C.ar    1  UNL1       -0.0003
@<TRIPOS>UNITY_ATOM_ATTR
16 1
charge 1
18 1
charge -1
@<TRIPOS>BOND
     1    26    27    2
     2    27    28    1
     3    28    29    1
     4    29    30    1
     5    30    31   ar
     6    31    32   ar
     7    32    33   ar
     8    33    34   ar
     9    34    35   ar
    10    35    20    1
    11    20    21   ar
    12    21    22   ar
    13    22    23   ar
    14    23    19    1
    15    19     1    1
    16     1     2    1
    17     2     3    1
    18     3     4    1
    19     4     5    1
    20     5     8    1
    21     8     9    1
    22     9    10    1
    23    10    11   ar
    24    11    12   ar
    25    12    13   ar
    26    13    16    1
    27    16    17    2
    28    16    18    1
    29    13    14   ar
    30    14    15   ar
    31     5     6    1
    32     6     7    1
    33    23    24   ar
    34    24    25   ar
    35    31    27    1
    36    25    20   ar
    37    35    30   ar
    38     7     2    1
    39    15    10   ar
@<TRIPOS>MOLECULE
*****
 35 39 0 0 0
SMALL
GASTEIGER

@<TRIPOS>ATOM
      1 C         144.4575  143.2199  161.9108 C.3     1  UNL1        0.0769
      2 N         143.0288  143.6613  162.0289 N.3     1  UNL1       -0.2700
      3 C         142.6766  144.8407  162.8863 C.3     1  UNL1        0.0897
      4 C         141.2479  145.2821  163.0044 C.3     1  UNL1        0.0897
      5 N         140.1713  144.5441  162.2651 N.3     1  UNL1       -0.2700
      6 C         140.5235  143.3647  161.4078 C.3     1  UNL1        0.0897
      7 C         141.9523  142.9233  161.2897 C.3     1  UNL1        0.0897
      8 C         138.7426  144.9855  162.3832 C.3     1  UNL1        0.0769
      9 C         137.8407  144.3440  163.3957 C.3     1  UNL1        0.0437
     10 C         138.1278  142.9544  163.8821 C.ar    1  UNL1       -0.0204
     11 C         139.0739  142.7407  165.0263 C.ar    1  UNL1        0.0021
     12 C         139.3609  141.3511  165.5127 C.ar    1  UNL1        0.0749
     13 C         138.7020  140.1751  164.8549 C.ar    1  UNL1        0.2900
     14 C         137.7558  140.3887  163.7106 C.ar    1  UNL1        0.0749
     15 C         137.4688  141.7783  163.2242 C.ar    1  UNL1        0.0021
     16 N         138.9890  138.7855  165.3413 N.pl3   1  UNL1        0.0809
     17 O         138.0009  138.0802  166.2224 O.2     1  UNL1        0.0415
     18 O         140.2641  138.1012  164.9466 O.co2   1  UNL1       -0.5760
     19 C         144.9777  142.1203  162.7884 C.3     1  UNL1        0.0437
     20 C         142.9647  141.2312  166.7135 C.ar    1  UNL1       -0.0002
     21 C         142.9385  140.2154  165.6102 C.ar    1  UNL1       -0.0003
     22 C         143.6095  140.5117  164.3018 C.ar    1  UNL1       -0.0042
     23 C         144.3067  141.8239  164.0968 C.ar    1  UNL1       -0.0208
     24 C         144.3329  142.8397  165.2001 C.ar    1  UNL1       -0.0042
     25 C         143.6619  142.5433  166.5085 C.ar    1  UNL1       -0.0003
     26 O         139.0795  143.0000  171.5877 O.2     1  UNL1       -0.2449
     27 C         139.9157  142.8628  170.3500 C.2     1  UNL1        0.3413
     28 O         140.0819  143.8997  169.2789 O.3     1  UNL1       -0.4404
     29 C         141.0014  143.3423  168.2330 C.3     1  UNL1        0.2356
     30 C         141.4033  141.9610  168.6576 C.ar    1  UNL1        0.0275
     31 C         140.7323  141.6646  169.9660 C.ar    1  UNL1        0.0752
     32 C         140.9516  140.3420  170.6387 C.ar    1  UNL1        0.0062
     33 C         141.8420  139.3158  170.0031 C.ar    1  UNL1        0.0002
     34 C         142.5130  139.6122  168.6947 C.ar    1  UNL1       -0.0002
     35 C         142.2937  140.9348  168.0219 C.ar    1  UNL1       -0.0003
@<TRIPOS>UNITY_ATOM_ATTR
16 1
charge 1
18 1
charge -1
@<TRIPOS>BOND
     1    26    27    2
     2    27    28    1
     3    28    29    1
     4    29    30    1
     5    30    31   ar
     6    31    32   ar
     7    32    33   ar
     8    33    34   ar
     9    34    35   ar
    10    35    20    1
    11    20    21   ar
    12    21    22   ar
    13    22    23   ar
    14    23    19    1
    15    19     1    1
    16     1     2    1
    17     2     3    1
    18     3     4    1
    19     4     5    1
    20     5     8    1
    21     8     9    1
    22     9    10    1
    23    10    11   ar
    24    11    12   ar
    25    12    13   ar
    26    13    16    1
    27    16    17    2
    28    16    18    1
    29    13    14   ar
    30    14    15   ar
    31     5     6    1
    32     6     7    1
    33    23    24   ar
    34    24    25   ar
    35    31    27    1
    36    25    20   ar
    37    35    30   ar
    38     7     2    1
    39    15    10   ar
@<TRIPOS>MOLECULE
*****
 35 39 0 0 0
SMALL
GASTEIGER

@<TRIPOS>ATOM
      1 C         138.5722  138.2973  161.3734 C.3     1  UNL1        0.0769
      2 N         138.9089  139.7279  161.0738 N.3     1  UNL1       -0.2700
      3 C         140.2417  140.0762  160.4798 C.3     1  UNL1        0.0897
      4 C         140.5784  141.5069  160.1802 C.3     1  UNL1        0.0897
      5 N         139.5824  142.5893  160.4744 N.3     1  UNL1       -0.2700
      6 C         138.2498  142.2410  161.0683 C.3     1  UNL1        0.0897
      7 C         137.9130  140.8103  161.3680 C.3     1  UNL1        0.0897
      8 C         139.9192  144.0199  160.1748 C.3     1  UNL1        0.0769
      9 C         140.3686  144.9316  161.2780 C.3     1  UNL1        0.0437
     10 C         141.5050  144.5267  162.1694 C.ar    1  UNL1       -0.0204
     11 C         141.3131  144.4833  163.6564 C.ar    1  UNL1        0.0021
     12 C         142.4495  144.0784  164.5478 C.ar    1  UNL1        0.0749
     13 C         143.7778  143.7169  163.9522 C.ar    1  UNL1        0.2900
     14 C         143.9698  143.7602  162.4651 C.ar    1  UNL1        0.0749
     15 C         142.8334  144.1651  161.5737 C.ar    1  UNL1        0.0021
     16 N         144.9142  143.3120  164.8436 N.pl3   1  UNL1        0.0809
     17 O         145.2866  144.1663  166.0190 O.2     1  UNL1        0.0415
     18 O         145.6783  142.0528  164.5597 O.co2   1  UNL1       -0.5760
     19 C         138.4475  137.8382  162.7960 C.3     1  UNL1        0.0437
     20 C         140.5162  140.1108  166.0832 C.ar    1  UNL1       -0.0002
     21 C         139.1016  140.4467  165.7145 C.ar    1  UNL1       -0.0003
     22 C         138.4120  139.6892  164.6187 C.ar    1  UNL1       -0.0042
     23 C         139.1370  138.5958  163.8917 C.ar    1  UNL1       -0.0208
     24 C         140.5517  138.2598  164.2604 C.ar    1  UNL1       -0.0042
     25 C         141.2412  139.0174  165.3561 C.ar    1  UNL1       -0.0003
     26 O         140.7410  142.2173  172.2063 O.2     1  UNL1       -0.2449
     27 C         140.4294  141.6047  170.8731 C.2     1  UNL1        0.3413
     28 O         139.2168  140.7867  170.5404 O.3     1  UNL1       -0.4404
     29 C         139.3136  140.3790  169.1002 C.3     1  UNL1        0.2356
     30 C         140.5860  140.9449  168.5427 C.ar    1  UNL1        0.0275
     31 C         141.2756  141.7025  169.6384 C.ar    1  UNL1        0.0752
     32 C         142.5849  142.3834  169.3704 C.ar    1  UNL1        0.0062
     33 C         143.2047  142.3068  168.0066 C.ar    1  UNL1        0.0002
     34 C         142.5151  141.5493  166.9109 C.ar    1  UNL1       -0.0002
     35 C         141.2058  140.8683  167.1789 C.ar    1  UNL1       -0.0003
@<TRIPOS>UNITY_ATOM_ATTR
16 1
charge 1
18 1
charge -1
@<TRIPOS>BOND
     1    26    27    2
     2    27    28    1
     3    28    29    1
     4    29    30    1
     5    30    31   ar
     6    31    32   ar
     7    32    33   ar
     8    33    34   ar
     9    34    35   ar
    10    35    20    1
    11    20    21   ar
    12    21    22   ar
    13    22    23   ar
    14    23    19    1
    15    19     1    1
    16     1     2    1
    17     2     3    1
    18     3     4    1
    19     4     5    1
    20     5     8    1
    21     8     9    1
    22     9    10    1
    23    10    11   ar
    24    11    12   ar
    25    12    13   ar
    26    13    16    1
    27    16    17    2
    28    16    18    1
    29    13    14   ar
    30    14    15   ar
    31     5     6    1
    32     6     7    1
    33    23    24   ar
    34    24    25   ar
    35    31    27    1
    36    25    20   ar
    37    35    30   ar
    38     7     2    1
    39    15    10   ar
@<TRIPOS>MOLECULE
*****
 35 39 0 0 0
SMALL
GASTEIGER

@<TRIPOS>ATOM
      1 C         144.5257  139.7390  161.8767 C.3     1  UNL1        0.0769
      2 N         143.1068  139.2936  161.6804 N.3     1  UNL1       -0.2700
      3 C         142.2213  140.0167  160.7093 C.3     1  UNL1        0.0897
      4 C         140.8025  139.5713  160.5130 C.3     1  UNL1        0.0897
      5 N         140.2691  138.4029  161.2879 N.3     1  UNL1       -0.2700
      6 C         141.1546  137.6799  162.2590 C.3     1  UNL1        0.0897
      7 C         142.5735  138.1253  162.4553 C.3     1  UNL1        0.0897
      8 C         138.8503  137.9575  161.0916 C.3     1  UNL1        0.0769
      9 C         137.7458  138.6058  161.8726 C.3     1  UNL1        0.0437
     10 C         137.8702  140.0383  162.2998 C.ar    1  UNL1       -0.0204
     11 C         137.7950  141.1347  161.2789 C.ar    1  UNL1        0.0021
     12 C         137.9193  142.5672  161.7061 C.ar    1  UNL1        0.0749
     13 C         138.1190  142.9033  163.1542 C.ar    1  UNL1        0.2900
     14 C         138.1942  141.8069  164.1752 C.ar    1  UNL1        0.0749
     15 C         138.0699  140.3744  163.7480 C.ar    1  UNL1        0.0021
     16 N         138.2434  144.3358  163.5814 N.pl3   1  UNL1        0.0809
     17 O         138.0180  144.7130  165.0157 O.2     1  UNL1        0.0415
     18 O         138.5931  145.3911  162.5745 O.co2   1  UNL1       -0.5760
     19 C         144.8272  140.9179  162.7538 C.3     1  UNL1        0.0437
     20 C         142.6519  141.4313  166.6595 C.ar    1  UNL1       -0.0002
     21 C         142.7243  142.5701  165.6860 C.ar    1  UNL1       -0.0003
     22 C         143.4494  142.3990  164.3841 C.ar    1  UNL1       -0.0042
     23 C         144.1021  141.0890  164.0557 C.ar    1  UNL1       -0.0208
     24 C         144.0297  139.9502  165.0292 C.ar    1  UNL1       -0.0042
     25 C         143.3046  140.1213  166.3311 C.ar    1  UNL1       -0.0003
     26 O         137.7363  139.9551  170.6141 O.2     1  UNL1       -0.2449
     27 C         138.7441  140.1004  169.5126 C.2     1  UNL1        0.3413
     28 O         138.7254  139.3759  168.1993 O.3     1  UNL1       -0.4404
     29 C         139.9173  139.8235  167.4062 C.3     1  UNL1        0.2356
     30 C         140.6725  140.8246  168.2292 C.ar    1  UNL1        0.0275
     31 C         139.9474  140.9958  169.5311 C.ar    1  UNL1        0.0752
     32 C         140.4766  141.9448  170.5652 C.ar    1  UNL1        0.0062
     33 C         141.7308  142.7226  170.2974 C.ar    1  UNL1        0.0002
     34 C         142.4559  142.5515  168.9955 C.ar    1  UNL1       -0.0002
     35 C         141.9268  141.6025  167.9614 C.ar    1  UNL1       -0.0003
@<TRIPOS>UNITY_ATOM_ATTR
16 1
charge 1
18 1
charge -1
@<TRIPOS>BOND
     1    26    27    2
     2    27    28    1
     3    28    29    1
     4    29    30    1
     5    30    31   ar
     6    31    32   ar
     7    32    33   ar
     8    33    34   ar
     9    34    35   ar
    10    35    20    1
    11    20    21   ar
    12    21    22   ar
    13    22    23   ar
    14    23    19    1
    15    19     1    1
    16     1     2    1
    17     2     3    1
    18     3     4    1
    19     4     5    1
    20     5     8    1
    21     8     9    1
    22     9    10    1
    23    10    11   ar
    24    11    12   ar
    25    12    13   ar
    26    13    16    1
    27    16    17    2
    28    16    18    1
    29    13    14   ar
    30    14    15   ar
    31     5     6    1
    32     6     7    1
    33    23    24   ar
    34    24    25   ar
    35    31    27    1
    36    25    20   ar
    37    35    30   ar
    38     7     2    1
    39    15    10   ar
@<TRIPOS>MOLECULE
*****
 35 39 0 0 0
SMALL
GASTEIGER

@<TRIPOS>ATOM
      1 C         138.2131  138.1144  161.6923 C.3     1  UNL1        0.0769
      2 N         138.9198  139.3320  161.1746 N.3     1  UNL1       -0.2700
      3 C         140.3693  139.2540  160.7967 C.3     1  UNL1        0.0897
      4 C         141.0760  140.4716  160.2790 C.3     1  UNL1        0.0897
      5 N         140.3331  141.7673  160.1393 N.3     1  UNL1       -0.2700
      6 C         138.8837  141.8453  160.5173 C.3     1  UNL1        0.0897
      7 C         138.1770  140.6277  161.0349 C.3     1  UNL1        0.0897
      8 C         141.0398  142.9849  159.6217 C.3     1  UNL1        0.0769
      9 C         141.5998  143.9921  160.5820 C.3     1  UNL1        0.0437
     10 C         140.9957  144.1439  161.9466 C.ar    1  UNL1       -0.0204
     11 C         139.8232  145.0569  162.1503 C.ar    1  UNL1        0.0021
     12 C         139.2191  145.2087  163.5149 C.ar    1  UNL1        0.0749
     13 C         139.7875  144.4476  164.6757 C.ar    1  UNL1        0.2900
     14 C         140.9601  143.5345  164.4719 C.ar    1  UNL1        0.0749
     15 C         141.5642  143.3827  163.1074 C.ar    1  UNL1        0.0021
     16 N         139.1834  144.5994  166.0402 N.pl3   1  UNL1        0.0809
     17 O         138.0740  145.5840  166.2640 O.2     1  UNL1        0.0415
     18 O         139.6885  143.7667  167.1809 O.co2   1  UNL1       -0.5760
     19 C         138.6654  137.4709  162.9694 C.3     1  UNL1        0.0437
     20 C         140.6177  139.9562  166.1728 C.ar    1  UNL1       -0.0002
     21 C         139.2263  140.2802  165.7158 C.ar    1  UNL1       -0.0003
     22 C         138.5756  139.4518  164.6480 C.ar    1  UNL1       -0.0042
     23 C         139.3162  138.2993  164.0372 C.ar    1  UNL1       -0.0208
     24 C         140.7076  137.9752  164.4943 C.ar    1  UNL1       -0.0042
     25 C         141.3584  138.8036  165.5621 C.ar    1  UNL1       -0.0003
     26 O         140.7431  142.2717  172.2229 O.2     1  UNL1       -0.2449
     27 C         140.4616  141.6000  170.9116 C.2     1  UNL1        0.3413
     28 O         139.2933  140.7088  170.6104 O.3     1  UNL1       -0.4404
     29 C         139.4086  140.2596  169.1839 C.3     1  UNL1        0.2356
     30 C         140.6483  140.8732  168.6035 C.ar    1  UNL1        0.0275
     31 C         141.2990  141.7016  169.6713 C.ar    1  UNL1        0.0752
     32 C         142.5700  142.4415  169.3762 C.ar    1  UNL1        0.0062
     33 C         143.1903  142.3529  168.0134 C.ar    1  UNL1        0.0002
     34 C         142.5395  141.5244  166.9456 C.ar    1  UNL1       -0.0002
     35 C         141.2685  140.7846  167.2406 C.ar    1  UNL1       -0.0003
@<TRIPOS>UNITY_ATOM_ATTR
16 1
charge 1
18 1
charge -1
@<TRIPOS>BOND
     1    26    27    2
     2    27    28    1
     3    28    29    1
     4    29    30    1
     5    30    31   ar
     6    31    32   ar
     7    32    33   ar
     8    33    34   ar
     9    34    35   ar
    10    35    20    1
    11    20    21   ar
    12    21    22   ar
    13    22    23   ar
    14    23    19    1
    15    19     1    1
    16     1     2    1
    17     2     3    1
    18     3     4    1
    19     4     5    1
    20     5     8    1
    21     8     9    1
    22     9    10    1
    23    10    11   ar
    24    11    12   ar
    25    12    13   ar
    26    13    16    1
    27    16    17    2
    28    16    18    1
    29    13    14   ar
    30    14    15   ar
    31     5     6    1
    32     6     7    1
    33    23    24   ar
    34    24    25   ar
    35    31    27    1
    36    25    20   ar
    37    35    30   ar
    38     7     2    1
    39    15    10   ar
@<TRIPOS>MOLECULE
*****
 35 39 0 0 0
SMALL
GASTEIGER

@<TRIPOS>ATOM
      1 C         140.1872  145.0588  160.8939 C.3     1  UNL1        0.0769
      2 N         139.9641  143.5997  160.6271 N.3     1  UNL1       -0.2700
      3 C         141.0345  142.7868  159.9611 C.3     1  UNL1        0.0897
      4 C         140.8114  141.3277  159.6943 C.3     1  UNL1        0.0897
      5 N         139.5178  140.6815  160.0934 N.3     1  UNL1       -0.2700
      6 C         138.4475  141.4944  160.7593 C.3     1  UNL1        0.0897
      7 C         138.6706  142.9535  161.0261 C.3     1  UNL1        0.0897
      8 C         139.2947  139.2224  159.8266 C.3     1  UNL1        0.0769
      9 C         139.4963  138.2198  160.9240 C.3     1  UNL1        0.0437
     10 C         140.6275  138.3878  161.8947 C.ar    1  UNL1       -0.0204
     11 C         140.3657  138.9456  163.2623 C.ar    1  UNL1        0.0021
     12 C         141.4969  139.1135  164.2330 C.ar    1  UNL1        0.0749
     13 C         142.8898  138.7237  163.8361 C.ar    1  UNL1        0.2900
     14 C         143.1517  138.1658  162.4685 C.ar    1  UNL1        0.0749
     15 C         142.0206  137.9979  161.4978 C.ar    1  UNL1        0.0021
     16 N         144.0210  138.8916  164.8068 N.pl3   1  UNL1        0.0809
     17 O         143.9557  138.2374  166.1551 O.2     1  UNL1        0.0415
     18 O         145.2175  139.7137  164.4293 O.co2   1  UNL1       -0.5760
     19 C         140.6939  145.5076  162.2324 C.3     1  UNL1        0.0437
     20 C         140.1730  142.8646  165.8371 C.ar    1  UNL1       -0.0002
     21 C         141.3977  142.7328  164.9811 C.ar    1  UNL1       -0.0003
     22 C         141.5714  143.6138  163.7796 C.ar    1  UNL1       -0.0042
     23 C         140.5203  144.6266  163.4340 C.ar    1  UNL1       -0.0208
     24 C         139.2956  144.7584  164.2900 C.ar    1  UNL1       -0.0042
     25 C         139.1220  143.8774  165.4915 C.ar    1  UNL1       -0.0003
     26 O         140.4251  141.9543  172.2471 O.2     1  UNL1       -0.2449
     27 C         140.4588  142.4430  170.8294 C.2     1  UNL1        0.3413
     28 O         140.8494  143.8199  170.3805 O.3     1  UNL1       -0.4404
     29 C         140.7397  143.8685  168.8853 C.3     1  UNL1        0.2356
     30 C         140.2812  142.5216  168.4101 C.ar    1  UNL1        0.0275
     31 C         140.1076  141.6406  169.6116 C.ar    1  UNL1        0.0752
     32 C         139.6522  140.2216  169.4417 C.ar    1  UNL1        0.0062
     33 C         139.3704  139.6836  168.0702 C.ar    1  UNL1        0.0002
     34 C         139.5440  140.5646  166.8686 C.ar    1  UNL1       -0.0002
     35 C         139.9994  141.9836  167.0386 C.ar    1  UNL1       -0.0003
@<TRIPOS>UNITY_ATOM_ATTR
16 1
charge 1
18 1
charge -1
@<TRIPOS>BOND
     1    26    27    2
     2    27    28    1
     3    28    29    1
     4    29    30    1
     5    30    31   ar
     6    31    32   ar
     7    32    33   ar
     8    33    34   ar
     9    34    35   ar
    10    35    20    1
    11    20    21   ar
    12    21    22   ar
    13    22    23   ar
    14    23    19    1
    15    19     1    1
    16     1     2    1
    17     2     3    1
    18     3     4    1
    19     4     5    1
    20     5     8    1
    21     8     9    1
    22     9    10    1
    23    10    11   ar
    24    11    12   ar
    25    12    13   ar
    26    13    16    1
    27    16    17    2
    28    16    18    1
    29    13    14   ar
    30    14    15   ar
    31     5     6    1
    32     6     7    1
    33    23    24   ar
    34    24    25   ar
    35    31    27    1
    36    25    20   ar
    37    35    30   ar
    38     7     2    1
    39    15    10   ar
@<TRIPOS>MOLECULE
*****
 35 39 0 0 0
SMALL
GASTEIGER

@<TRIPOS>ATOM
      1 C         139.1666  138.2119  161.6200 C.3     1  UNL1        0.0769
      2 N         139.2939  139.6728  161.3048 N.3     1  UNL1       -0.2700
      3 C         138.2002  140.6224  161.6950 C.3     1  UNL1        0.0897
      4 C         138.3275  142.0834  161.3797 C.3     1  UNL1        0.0897
      5 N         139.5486  142.5947  160.6742 N.3     1  UNL1       -0.2700
      6 C         140.6422  141.6451  160.2840 C.3     1  UNL1        0.0897
      7 C         140.5148  140.1842  160.5993 C.3     1  UNL1        0.0897
      8 C         139.6759  144.0557  160.3589 C.3     1  UNL1        0.0769
      9 C         140.2605  144.9936  161.3731 C.3     1  UNL1        0.0437
     10 C         141.4067  144.5493  162.2326 C.ar    1  UNL1       -0.0204
     11 C         142.7615  144.3368  161.6249 C.ar    1  UNL1        0.0021
     12 C         143.9077  143.8924  162.4844 C.ar    1  UNL1        0.0749
     13 C         143.6991  143.6607  163.9516 C.ar    1  UNL1        0.2900
     14 C         142.3443  143.8732  164.5594 C.ar    1  UNL1        0.0749
     15 C         141.1981  144.3176  163.6999 C.ar    1  UNL1        0.0021
     16 N         144.8454  143.2164  164.8111 N.pl3   1  UNL1        0.0809
     17 O         145.6263  141.9893  164.4442 O.2     1  UNL1        0.0415
     18 O         145.2106  143.9990  166.0375 O.co2   1  UNL1       -0.5760
     19 C         139.9627  137.6146  162.7422 C.3     1  UNL1        0.0437
     20 C         140.1690  139.7106  166.7189 C.ar    1  UNL1       -0.0002
     21 C         138.8371  139.4027  166.1016 C.ar    1  UNL1       -0.0003
     22 C         138.7683  138.7040  164.7761 C.ar    1  UNL1       -0.0042
     23 C         140.0315  138.3133  164.0678 C.ar    1  UNL1       -0.0208
     24 C         141.3634  138.6212  164.6851 C.ar    1  UNL1       -0.0042
     25 C         141.4322  139.3198  166.0107 C.ar    1  UNL1       -0.0003
     26 O         143.1940  143.6775  170.8535 O.2     1  UNL1       -0.2449
     27 C         142.7265  142.8183  169.7163 C.2     1  UNL1        0.3413
     28 O         143.4357  142.6235  168.4090 O.3     1  UNL1       -0.4404
     29 C         142.6153  141.6878  167.5715 C.3     1  UNL1        0.2356
     30 C         141.3990  141.3044  168.3612 C.ar    1  UNL1        0.0275
     31 C         141.4677  142.0030  169.6868 C.ar    1  UNL1        0.0752
     32 C         140.3753  141.8066  170.6957 C.ar    1  UNL1        0.0062
     33 C         139.2140  140.9115  170.3790 C.ar    1  UNL1        0.0002
     34 C         139.1453  140.2129  169.0534 C.ar    1  UNL1       -0.0002
     35 C         140.2378  140.4093  168.0445 C.ar    1  UNL1       -0.0003
@<TRIPOS>UNITY_ATOM_ATTR
16 1
charge 1
18 1
charge -1
@<TRIPOS>BOND
     1    26    27    2
     2    27    28    1
     3    28    29    1
     4    29    30    1
     5    30    31   ar
     6    31    32   ar
     7    32    33   ar
     8    33    34   ar
     9    34    35   ar
    10    35    20    1
    11    20    21   ar
    12    21    22   ar
    13    22    23   ar
    14    23    19    1
    15    19     1    1
    16     1     2    1
    17     2     3    1
    18     3     4    1
    19     4     5    1
    20     5     8    1
    21     8     9    1
    22     9    10    1
    23    10    11   ar
    24    11    12   ar
    25    12    13   ar
    26    13    16    1
    27    16    17    2
    28    16    18    1
    29    13    14   ar
    30    14    15   ar
    31     5     6    1
    32     6     7    1
    33    23    24   ar
    34    24    25   ar
    35    31    27    1
    36    25    20   ar
    37    35    30   ar
    38     7     2    1
    39    15    10   ar
@<TRIPOS>MOLECULE
*****
 35 39 0 0 0
SMALL
GASTEIGER

@<TRIPOS>ATOM
      1 C         137.7104  139.9307  161.9568 C.3     1  UNL1        0.0769
      2 N         139.0656  139.3672  161.6472 N.3     1  UNL1       -0.2700
      3 C         139.5917  138.2036  162.4342 C.3     1  UNL1        0.0897
      4 C         140.9470  137.6401  162.1246 C.3     1  UNL1        0.0897
      5 N         141.7761  138.2402  161.0280 N.3     1  UNL1       -0.2700
      6 C         141.2499  139.4037  160.2410 C.3     1  UNL1        0.0897
      7 C         139.8947  139.9672  160.5506 C.3     1  UNL1        0.0897
      8 C         143.1313  137.6767  160.7184 C.3     1  UNL1        0.0769
      9 C         144.3275  138.1255  161.5043 C.3     1  UNL1        0.0437
     10 C         144.2249  139.3144  162.4130 C.ar    1  UNL1       -0.0204
     11 C         143.8843  139.1243  163.8614 C.ar    1  UNL1        0.0021
     12 C         143.7817  140.3133  164.7701 C.ar    1  UNL1        0.0749
     13 C         144.0197  141.6924  164.2305 C.ar    1  UNL1        0.2900
     14 C         144.3603  141.8826  162.7821 C.ar    1  UNL1        0.0749
     15 C         144.4630  140.6937  161.8734 C.ar    1  UNL1        0.0021
     16 N         143.9170  142.8814  165.1392 N.pl3   1  UNL1        0.0809
     17 O         144.0624  144.2663  164.5816 O.2     1  UNL1        0.0415
     18 O         143.6691  142.6855  166.6055 O.co2   1  UNL1       -0.5760
     19 C         137.5894  141.2231  162.7085 C.3     1  UNL1        0.0437
     20 C         139.7880  141.7799  166.5951 C.ar    1  UNL1       -0.0002
     21 C         139.8455  142.8460  165.5415 C.ar    1  UNL1       -0.0003
     22 C         139.1126  142.6604  164.2459 C.ar    1  UNL1       -0.0042
     23 C         138.3223  141.4087  164.0040 C.ar    1  UNL1       -0.0208
     24 C         138.2648  140.3426  165.0576 C.ar    1  UNL1       -0.0042
     25 C         138.9977  140.5282  166.3532 C.ar    1  UNL1       -0.0003
     26 O         143.8832  139.6044  171.1203 O.2     1  UNL1       -0.2449
     27 C         142.9915  139.8455  169.9385 C.2     1  UNL1        0.3413
     28 O         142.7690  138.9009  168.7947 O.3     1  UNL1       -0.4404
     29 C         141.8057  139.5452  167.8423 C.3     1  UNL1        0.2356
     30 C         141.4330  140.8879  168.3974 C.ar    1  UNL1        0.0275
     31 C         142.1659  141.0735  169.6930 C.ar    1  UNL1        0.0752
     32 C         141.9867  142.3367  170.4817 C.ar    1  UNL1        0.0062
     33 C         141.0746  143.4143  169.9749 C.ar    1  UNL1        0.0002
     34 C         140.3417  143.2287  168.6794 C.ar    1  UNL1       -0.0002
     35 C         140.5209  141.9655  167.8906 C.ar    1  UNL1       -0.0003
@<TRIPOS>UNITY_ATOM_ATTR
16 1
charge 1
18 1
charge -1
@<TRIPOS>BOND
     1    26    27    2
     2    27    28    1
     3    28    29    1
     4    29    30    1
     5    30    31   ar
     6    31    32   ar
     7    32    33   ar
     8    33    34   ar
     9    34    35   ar
    10    35    20    1
    11    20    21   ar
    12    21    22   ar
    13    22    23   ar
    14    23    19    1
    15    19     1    1
    16     1     2    1
    17     2     3    1
    18     3     4    1
    19     4     5    1
    20     5     8    1
    21     8     9    1
    22     9    10    1
    23    10    11   ar
    24    11    12   ar
    25    12    13   ar
    26    13    16    1
    27    16    17    2
    28    16    18    1
    29    13    14   ar
    30    14    15   ar
    31     5     6    1
    32     6     7    1
    33    23    24   ar
    34    24    25   ar
    35    31    27    1
    36    25    20   ar
    37    35    30   ar
    38     7     2    1
    39    15    10   ar
