@<TRIPOS>MOLECULE
*****
 35 38 0 0 0
SMALL
GASTEIGER

@<TRIPOS>ATOM
      1 N         143.3751  139.3988  162.9441 N.3     1  UNL1       -0.2679
      2 C         143.3841  139.0833  164.4106 C.3     1  UNL1        0.0897
      3 C         142.1773  138.4653  165.0522 C.3     1  UNL1        0.0897
      4 N         140.9615  138.1629  164.2273 N.3     1  UNL1       -0.2680
      5 C         140.9524  138.4783  162.7609 C.3     1  UNL1        0.0897
      6 C         142.1593  139.0963  162.1194 C.3     1  UNL1        0.0897
      7 C         144.5819  140.0167  162.3025 C.3     1  UNL1        0.1080
      8 C         144.8772  141.4731  162.5070 C.3     1  UNL1        0.1661
      9 O         146.2356  141.9043  162.9748 O.3     1  UNL1       -0.3771
     10 H         146.7986  141.1238  163.0962 H       1  UNL1        0.2109
     11 C         142.5136  144.0154  160.5836 C.ar    1  UNL1        0.1510
     12 C         143.5766  142.9904  160.8469 C.ar    1  UNL1        0.0548
     13 C         143.8142  142.4981  162.2438 C.ar    1  UNL1        0.0901
     14 N         142.9888  143.0308  163.3773 N.ar    1  UNL1       -0.2448
     15 C         141.9258  144.0558  163.1140 C.ar    1  UNL1        0.1118
     16 C         141.6882  144.5481  161.7171 C.ar    1  UNL1        0.1213
     17 C         141.3841  143.7351  158.2608 C.3     1  UNL1        0.2525
     18 O         142.2760  144.5078  159.1868 O.3     1  UNL1       -0.4707
     19 C         140.6251  145.5732  161.4539 C.1     1  UNL1        0.1051
     20 N         139.5620  146.5981  161.1907 N.1     1  UNL1       -0.1907
     21 C         139.7547  137.5449  164.8690 C.3     1  UNL1        0.1064
     22 C         138.6959  138.4192  165.4730 C.3     1  UNL1        0.1483
     23 O         137.8203  137.8883  166.5691 O.3     1  UNL1       -0.3786
     24 H         137.1944  138.5763  166.8447 H       1  UNL1        0.2108
     25 C         138.5128  139.8243  164.9808 C.ar    1  UNL1        0.0015
     26 C         137.7044  140.0867  163.7449 C.ar    1  UNL1       -0.0020
     27 C         137.5213  141.4918  163.2527 C.ar    1  UNL1        0.0060
     28 C         138.1467  142.6344  163.9965 C.ar    1  UNL1        0.0748
     29 C         138.9551  142.3721  165.2324 C.ar    1  UNL1        0.0233
     30 C         139.1383  140.9670  165.7246 C.ar    1  UNL1       -0.0238
     31 C         139.9468  140.7045  166.9605 C.3     1  UNL1        0.0306
     32 C         139.4479  143.6899  165.7525 C.3     1  UNL1        0.2352
     33 O         138.9439  144.7668  164.8380 O.3     1  UNL1       -0.4404
     34 C         138.1397  144.1145  163.7527 C.2     1  UNL1        0.3413
     35 O         137.4497  144.8186  162.6222 O.2     1  UNL1       -0.2449
@<TRIPOS>BOND
     1    17    18    1
     2    18    11    1
     3    11    12   ar
     4    12    13   ar
     5    13     8    1
     6     8     9    1
     7     8     7    1
     8     7     1    1
     9     1     2    1
    10     2     3    1
    11     3     4    1
    12     4    21    1
    13    21    22    1
    14    22    23    1
    15    22    25    1
    16    25    26   ar
    17    26    27   ar
    18    27    28   ar
    19    28    29   ar
    20    29    30   ar
    21    30    31    1
    22    29    32    1
    23    32    33    1
    24    33    34    1
    25    34    35    2
    26     4     5    1
    27     5     6    1
    28    13    14   ar
    29    14    15   ar
    30    15    16   ar
    31    16    19    1
    32    19    20    3
    33    16    11   ar
    34     6     1    1
    35    30    25   ar
    36    34    28    1
    37     9    10    1
    38    23    24    1
@<TRIPOS>MOLECULE
*****
 35 38 0 0 0
SMALL
GASTEIGER

@<TRIPOS>ATOM
      1 N         143.7147  139.3768  161.5752 N.3     1  UNL1       -0.2679
      2 C         143.9690  140.7372  160.9968 C.3     1  UNL1        0.0897
      3 C         144.5967  141.8060  161.8416 C.3     1  UNL1        0.0897
      4 N         144.9701  141.5143  163.2648 N.3     1  UNL1       -0.2680
      5 C         144.7158  140.1539  163.8433 C.3     1  UNL1        0.0897
      6 C         144.0881  139.0852  162.9984 C.3     1  UNL1        0.0897
      7 C         143.0870  138.3080  160.7305 C.3     1  UNL1        0.1080
      8 C         141.5933  138.1987  160.6468 C.3     1  UNL1        0.1661
      9 O         140.9231  138.0893  159.3093 O.3     1  UNL1       -0.3771
     10 H         141.5943  138.1042  158.6092 H       1  UNL1        0.2109
     11 C         138.8508  139.2081  163.3319 C.ar    1  UNL1        0.1510
     12 C         139.6743  139.2079  162.0781 C.ar    1  UNL1        0.0548
     13 C         140.7698  138.1988  161.9005 C.ar    1  UNL1        0.0901
     14 N         141.0419  137.1899  162.9767 N.ar    1  UNL1       -0.2448
     15 C         140.2184  137.1901  164.2304 C.ar    1  UNL1        0.1118
     16 C         139.1229  138.1991  164.4080 C.ar    1  UNL1        0.1213
     17 C         137.4251  141.1692  162.3984 C.3     1  UNL1        0.2525
     18 O         137.7552  140.2171  163.5096 O.3     1  UNL1       -0.4707
     19 C         138.2994  138.1992  165.6618 C.1     1  UNL1        0.1051
     20 N         137.4761  138.1993  166.9156 N.1     1  UNL1       -0.1907
     21 C         145.5978  142.5831  164.1096 C.3     1  UNL1        0.1064
     22 C         144.7355  143.4794  164.9481 C.3     1  UNL1        0.1483
     23 O         145.2855  144.0896  166.2031 O.3     1  UNL1       -0.3786
     24 H         144.6033  144.6373  166.6222 H       1  UNL1        0.2108
     25 C         143.3231  143.7654  164.5315 C.ar    1  UNL1        0.0015
     26 C         143.0494  144.7548  163.4379 C.ar    1  UNL1       -0.0020
     27 C         141.6371  145.0408  163.0214 C.ar    1  UNL1        0.0060
     28 C         140.4984  144.3374  163.6986 C.ar    1  UNL1        0.0748
     29 C         140.7720  143.3480  164.7923 C.ar    1  UNL1        0.0233
     30 C         142.1843  143.0620  165.2088 C.ar    1  UNL1       -0.0238
     31 C         142.4581  142.0726  166.3026 C.3     1  UNL1        0.0306
     32 C         139.4558  142.8131  165.2734 C.3     1  UNL1        0.2352
     33 O         138.3688  143.4719  164.4771 O.3     1  UNL1       -0.4404
     34 C         139.0131  144.4140  163.5037 C.2     1  UNL1        0.3413
     35 O         138.2977  145.2805  162.5101 O.2     1  UNL1       -0.2449
@<TRIPOS>BOND
     1    17    18    1
     2    18    11    1
     3    11    12   ar
     4    12    13   ar
     5    13     8    1
     6     8     9    1
     7     8     7    1
     8     7     1    1
     9     1     2    1
    10     2     3    1
    11     3     4    1
    12     4    21    1
    13    21    22    1
    14    22    23    1
    15    22    25    1
    16    25    26   ar
    17    26    27   ar
    18    27    28   ar
    19    28    29   ar
    20    29    30   ar
    21    30    31    1
    22    29    32    1
    23    32    33    1
    24    33    34    1
    25    34    35    2
    26     4     5    1
    27     5     6    1
    28    13    14   ar
    29    14    15   ar
    30    15    16   ar
    31    16    19    1
    32    19    20    3
    33    16    11   ar
    34     6     1    1
    35    30    25   ar
    36    34    28    1
    37     9    10    1
    38    23    24    1
@<TRIPOS>MOLECULE
*****
 35 38 0 0 0
SMALL
GASTEIGER

@<TRIPOS>ATOM
      1 N         140.7636  140.3229  166.8583 N.3     1  UNL1       -0.2679
      2 C         141.0809  141.7857  166.7598 C.3     1  UNL1        0.0897
      3 C         142.3333  142.2366  166.0684 C.3     1  UNL1        0.0897
      4 N         143.2685  141.2246  165.4755 N.3     1  UNL1       -0.2680
      5 C         142.9512  139.7618  165.5740 C.3     1  UNL1        0.0897
      6 C         141.6988  139.3111  166.2655 C.3     1  UNL1        0.0897
      7 C         139.5111  139.8721  167.5498 C.3     1  UNL1        0.1080
      8 C         138.4697  139.1047  166.7903 C.3     1  UNL1        0.1661
      9 O         137.5391  138.1810  167.5187 O.3     1  UNL1       -0.3771
     10 H         137.7440  138.1969  168.4667 H       1  UNL1        0.2109
     11 C         137.7627  140.7112  163.2310 C.ar    1  UNL1        0.1510
     12 C         137.8734  140.5546  164.7187 C.ar    1  UNL1        0.0548
     13 C         138.3591  139.2612  165.3027 C.ar    1  UNL1        0.0901
     14 N         138.7341  138.1242  164.3990 N.ar    1  UNL1       -0.2448
     15 C         138.6234  138.2807  162.9113 C.ar    1  UNL1        0.1118
     16 C         138.1377  139.5742  162.3273 C.ar    1  UNL1        0.1213
     17 C         137.6188  143.3039  163.3140 C.3     1  UNL1        0.2525
     18 O         137.2771  142.0046  162.6469 O.3     1  UNL1       -0.4707
     19 C         138.0271  139.7306  160.8395 C.1     1  UNL1        0.1051
     20 N         137.9164  139.8869  159.3518 N.1     1  UNL1       -0.1907
     21 C         144.5209  141.6754  164.7840 C.3     1  UNL1        0.1064
     22 C         144.4776  142.0745  163.3388 C.3     1  UNL1        0.1483
     23 O         145.5678  141.6360  162.4066 O.3     1  UNL1       -0.3786
     24 H         145.3886  141.9768  161.5163 H       1  UNL1        0.2108
     25 C         143.3439  142.9122  162.8257 C.ar    1  UNL1        0.0015
     26 C         143.2228  144.3475  163.2438 C.ar    1  UNL1       -0.0020
     27 C         142.0892  145.1852  162.7307 C.ar    1  UNL1        0.0060
     28 C         141.0766  144.5874  161.7995 C.ar    1  UNL1        0.0748
     29 C         141.1976  143.1519  161.3813 C.ar    1  UNL1        0.0233
     30 C         142.3313  142.3143  161.8943 C.ar    1  UNL1       -0.0238
     31 C         142.4524  140.8788  161.4762 C.3     1  UNL1        0.0306
     32 C         140.0566  142.8400  160.4589 C.3     1  UNL1        0.2352
     33 O         139.2303  144.0826  160.3071 O.3     1  UNL1       -0.4404
     34 C         139.8607  145.1626  161.1356 C.2     1  UNL1        0.3413
     35 O         139.3626  146.5705  161.2756 O.2     1  UNL1       -0.2449
@<TRIPOS>BOND
     1    17    18    1
     2    18    11    1
     3    11    12   ar
     4    12    13   ar
     5    13     8    1
     6     8     9    1
     7     8     7    1
     8     7     1    1
     9     1     2    1
    10     2     3    1
    11     3     4    1
    12     4    21    1
    13    21    22    1
    14    22    23    1
    15    22    25    1
    16    25    26   ar
    17    26    27   ar
    18    27    28   ar
    19    28    29   ar
    20    29    30   ar
    21    30    31    1
    22    29    32    1
    23    32    33    1
    24    33    34    1
    25    34    35    2
    26     4     5    1
    27     5     6    1
    28    13    14   ar
    29    14    15   ar
    30    15    16   ar
    31    16    19    1
    32    19    20    3
    33    16    11   ar
    34     6     1    1
    35    30    25   ar
    36    34    28    1
    37     9    10    1
    38    23    24    1
@<TRIPOS>MOLECULE
*****
 35 38 0 0 0
SMALL
GASTEIGER

@<TRIPOS>ATOM
      1 N         142.6858  138.7440  164.3361 N.3     1  UNL1       -0.2679
      2 C         141.4948  137.9472  164.7796 C.3     1  UNL1        0.0897
      3 C         140.3177  137.7851  163.8641 C.3     1  UNL1        0.0897
      4 N         140.3317  138.4198  162.5051 N.3     1  UNL1       -0.2680
      5 C         141.5226  139.2166  162.0615 C.3     1  UNL1        0.0897
      6 C         142.6997  139.3787  162.9771 C.3     1  UNL1        0.0897
      7 C         143.8628  138.9061  165.2516 C.3     1  UNL1        0.1080
      8 C         143.8053  138.3666  166.6501 C.3     1  UNL1        0.1661
      9 O         144.4396  137.0457  166.9710 O.3     1  UNL1       -0.3771
     10 H         144.8401  136.6759  166.1686 H       1  UNL1        0.2109
     11 C         141.9220  141.3153  168.5230 C.ar    1  UNL1        0.1510
     12 C         142.6137  140.5338  167.4456 C.ar    1  UNL1        0.0548
     13 C         143.1136  139.1479  167.7275 C.ar    1  UNL1        0.0901
     14 N         142.9217  138.5435  169.0869 N.ar    1  UNL1       -0.2448
     15 C         142.2299  139.3249  170.1642 C.ar    1  UNL1        0.1118
     16 C         141.7300  140.7108  169.8823 C.ar    1  UNL1        0.1213
     17 C         140.2513  142.9044  167.3258 C.3     1  UNL1        0.2525
     18 O         141.4221  142.7012  168.2411 O.3     1  UNL1       -0.4707
     19 C         141.0382  141.4922  170.9598 C.1     1  UNL1        0.1051
     20 N         140.3466  142.2736  172.0373 N.1     1  UNL1       -0.1907
     21 C         139.1546  138.2577  161.5895 C.3     1  UNL1        0.1064
     22 C         138.0101  139.2247  161.6610 C.3     1  UNL1        0.1483
     23 O         136.6929  138.8756  161.0340 O.3     1  UNL1       -0.3786
     24 H         136.0670  139.6040  161.1698 H       1  UNL1        0.2108
     25 C         138.1829  140.5410  162.3594 C.ar    1  UNL1        0.0015
     26 C         137.7997  140.6801  163.8029 C.ar    1  UNL1       -0.0020
     27 C         137.9724  141.9963  164.5013 C.ar    1  UNL1        0.0060
     28 C         138.5284  143.1734  163.7561 C.ar    1  UNL1        0.0748
     29 C         138.9116  143.0344  162.3126 C.ar    1  UNL1        0.0233
     30 C         138.7388  141.7182  161.6142 C.ar    1  UNL1       -0.0238
     31 C         139.1220  141.5791  160.1706 C.3     1  UNL1        0.0306
     32 C         139.4301  144.3605  161.8408 C.3     1  UNL1        0.2352
     33 O         139.3674  145.3191  162.9928 O.3     1  UNL1       -0.4404
     34 C         138.8101  144.5855  164.1765 C.2     1  UNL1        0.3413
     35 O         138.5757  145.1626  165.5411 O.2     1  UNL1       -0.2449
@<TRIPOS>BOND
     1    17    18    1
     2    18    11    1
     3    11    12   ar
     4    12    13   ar
     5    13     8    1
     6     8     9    1
     7     8     7    1
     8     7     1    1
     9     1     2    1
    10     2     3    1
    11     3     4    1
    12     4    21    1
    13    21    22    1
    14    22    23    1
    15    22    25    1
    16    25    26   ar
    17    26    27   ar
    18    27    28   ar
    19    28    29   ar
    20    29    30   ar
    21    30    31    1
    22    29    32    1
    23    32    33    1
    24    33    34    1
    25    34    35    2
    26     4     5    1
    27     5     6    1
    28    13    14   ar
    29    14    15   ar
    30    15    16   ar
    31    16    19    1
    32    19    20    3
    33    16    11   ar
    34     6     1    1
    35    30    25   ar
    36    34    28    1
    37     9    10    1
    38    23    24    1
@<TRIPOS>MOLECULE
*****
 35 38 0 0 0
SMALL
GASTEIGER

@<TRIPOS>ATOM
      1 N         140.1142  139.2738  160.4059 N.3     1  UNL1       -0.2679
      2 C         140.3680  138.1385  161.3529 C.3     1  UNL1        0.0897
      3 C         141.7083  137.9964  162.0112 C.3     1  UNL1        0.0897
      4 N         142.7947  138.9897  161.7226 N.3     1  UNL1       -0.2680
      5 C         142.5408  140.1250  160.7757 C.3     1  UNL1        0.0897
      6 C         141.2005  140.2670  160.1174 C.3     1  UNL1        0.0897
      7 C         138.7739  139.4159  159.7476 C.3     1  UNL1        0.1080
      8 C         137.5928  139.8855  160.5443 C.3     1  UNL1        0.1661
      9 O         136.2321  139.3144  160.2757 O.3     1  UNL1       -0.3771
     10 H         136.2913  138.6596  159.5625 H       1  UNL1        0.2109
     11 C         138.1361  141.5525  164.1045 C.ar    1  UNL1        0.1510
     12 C         137.9563  140.5119  163.0393 C.ar    1  UNL1        0.0548
     13 C         137.7726  140.9262  161.6094 C.ar    1  UNL1        0.0901
     14 N         137.7687  142.3812  161.2448 N.ar    1  UNL1       -0.2448
     15 C         137.9485  143.4218  162.3100 C.ar    1  UNL1        0.1118
     16 C         138.1322  143.0075  163.7399 C.ar    1  UNL1        0.1213
     17 C         138.6066  139.7044  165.8689 C.3     1  UNL1        0.2525
     18 O         138.3199  141.1382  165.5345 O.3     1  UNL1       -0.4707
     19 C         138.3120  144.0483  164.8051 C.1     1  UNL1        0.1051
     20 N         138.4917  145.0889  165.8703 N.1     1  UNL1       -0.1907
     21 C         144.1350  138.8476  162.3809 C.3     1  UNL1        0.1064
     22 C         144.5518  139.8139  163.4497 C.3     1  UNL1        0.1483
     23 O         145.7441  140.6990  163.2371 O.3     1  UNL1       -0.3786
     24 H         145.8748  141.2586  164.0186 H       1  UNL1        0.2108
     25 C         143.7763  139.8953  164.7312 C.ar    1  UNL1        0.0015
     26 C         143.8367  138.7668  165.7173 C.ar    1  UNL1       -0.0020
     27 C         143.0612  138.8481  166.9988 C.ar    1  UNL1        0.0060
     28 C         142.2254  140.0581  167.2940 C.ar    1  UNL1        0.0748
     29 C         142.1649  141.1868  166.3078 C.ar    1  UNL1        0.0233
     30 C         142.9404  141.1054  165.0264 C.ar    1  UNL1       -0.0238
     31 C         142.8800  142.2340  164.0402 C.3     1  UNL1        0.0306
     32 C         141.2615  142.2447  166.8688 C.3     1  UNL1        0.2352
     33 O         140.7636  141.7698  168.2017 O.3     1  UNL1       -0.4404
     34 C         141.3592  140.4185  168.4645 C.2     1  UNL1        0.3413
     35 O         141.1292  139.5755  169.6837 O.2     1  UNL1       -0.2449
@<TRIPOS>BOND
     1    17    18    1
     2    18    11    1
     3    11    12   ar
     4    12    13   ar
     5    13     8    1
     6     8     9    1
     7     8     7    1
     8     7     1    1
     9     1     2    1
    10     2     3    1
    11     3     4    1
    12     4    21    1
    13    21    22    1
    14    22    23    1
    15    22    25    1
    16    25    26   ar
    17    26    27   ar
    18    27    28   ar
    19    28    29   ar
    20    29    30   ar
    21    30    31    1
    22    29    32    1
    23    32    33    1
    24    33    34    1
    25    34    35    2
    26     4     5    1
    27     5     6    1
    28    13    14   ar
    29    14    15   ar
    30    15    16   ar
    31    16    19    1
    32    19    20    3
    33    16    11   ar
    34     6     1    1
    35    30    25   ar
    36    34    28    1
    37     9    10    1
    38    23    24    1
@<TRIPOS>MOLECULE
*****
 35 38 0 0 0
SMALL
GASTEIGER

@<TRIPOS>ATOM
      1 N         142.1444  138.1517  161.2241 N.3     1  UNL1       -0.2679
      2 C         140.7329  138.3240  160.7467 C.3     1  UNL1        0.0897
      3 C         139.5948  138.2227  161.7185 C.3     1  UNL1        0.0897
      4 N         139.8683  137.9491  163.1678 N.3     1  UNL1       -0.2680
      5 C         141.2799  137.7768  163.6452 C.3     1  UNL1        0.0897
      6 C         142.4179  137.8781  162.6734 C.3     1  UNL1        0.0897
      7 C         143.2825  138.2531  160.2523 C.3     1  UNL1        0.1080
      8 C         143.7199  139.5959  159.7467 C.3     1  UNL1        0.1661
      9 O         144.1021  139.7668  158.3063 O.3     1  UNL1       -0.3771
     10 H         144.0111  138.9185  157.8448 H       1  UNL1        0.2109
     11 C         143.0890  143.2003  161.2828 C.ar    1  UNL1        0.1510
     12 C         143.0339  142.0285  160.3481 C.ar    1  UNL1        0.0548
     13 C         143.7750  140.7677  160.6815 C.ar    1  UNL1        0.0901
     14 N         144.5711  140.6787  161.9496 N.ar    1  UNL1       -0.2448
     15 C         144.6262  141.8505  162.8844 C.ar    1  UNL1        0.1118
     16 C         143.8852  143.1113  162.5510 C.ar    1  UNL1        0.1213
     17 C         141.2784  144.4468  159.8979 C.3     1  UNL1        0.2525
     18 O         142.3480  144.4612  160.9495 O.3     1  UNL1       -0.4707
     19 C         143.9403  144.2832  163.4858 C.1     1  UNL1        0.1051
     20 N         143.9954  145.4549  164.4207 N.1     1  UNL1       -0.1907
     21 C         138.7303  137.8477  164.1397 C.3     1  UNL1        0.1064
     22 C         138.3721  139.0229  165.0003 C.3     1  UNL1        0.1483
     23 O         137.8653  138.8043  166.3951 O.3     1  UNL1       -0.3786
     24 H         137.6823  139.6614  166.8106 H       1  UNL1        0.2108
     25 C         138.5207  140.4167  164.4661 C.ar    1  UNL1        0.0015
     26 C         137.5835  140.9182  163.4079 C.ar    1  UNL1       -0.0020
     27 C         137.7320  142.3120  162.8737 C.ar    1  UNL1        0.0060
     28 C         138.8178  143.2043  163.3979 C.ar    1  UNL1        0.0748
     29 C         139.7551  142.7028  164.4562 C.ar    1  UNL1        0.0233
     30 C         139.6066  141.3090  164.9904 C.ar    1  UNL1       -0.0238
     31 C         140.5438  140.8075  166.0487 C.3     1  UNL1        0.0306
     32 C         140.7226  143.8031  164.7778 C.3     1  UNL1        0.2352
     33 O         140.3832  144.9845  163.9182 O.3     1  UNL1       -0.4404
     34 C         139.2060  144.6145  163.0654 C.2     1  UNL1        0.3413
     35 O         138.5349  145.4993  162.0571 O.2     1  UNL1       -0.2449
@<TRIPOS>BOND
     1    17    18    1
     2    18    11    1
     3    11    12   ar
     4    12    13   ar
     5    13     8    1
     6     8     9    1
     7     8     7    1
     8     7     1    1
     9     1     2    1
    10     2     3    1
    11     3     4    1
    12     4    21    1
    13    21    22    1
    14    22    23    1
    15    22    25    1
    16    25    26   ar
    17    26    27   ar
    18    27    28   ar
    19    28    29   ar
    20    29    30   ar
    21    30    31    1
    22    29    32    1
    23    32    33    1
    24    33    34    1
    25    34    35    2
    26     4     5    1
    27     5     6    1
    28    13    14   ar
    29    14    15   ar
    30    15    16   ar
    31    16    19    1
    32    19    20    3
    33    16    11   ar
    34     6     1    1
    35    30    25   ar
    36    34    28    1
    37     9    10    1
    38    23    24    1
@<TRIPOS>MOLECULE
*****
 35 38 0 0 0
SMALL
GASTEIGER

@<TRIPOS>ATOM
      1 N         138.6753  140.9158  163.2958 N.3     1  UNL1       -0.2679
      2 C         139.4671  140.5183  162.0854 C.3     1  UNL1        0.0897
      3 C         139.8742  141.5558  161.0816 C.3     1  UNL1        0.0897
      4 N         139.4894  142.9909  161.2882 N.3     1  UNL1       -0.2680
      5 C         138.6976  143.3884  162.4986 C.3     1  UNL1        0.0897
      6 C         138.2905  142.3508  163.5023 C.3     1  UNL1        0.0897
      7 C         138.2682  139.8782  164.2997 C.3     1  UNL1        0.1080
      8 C         139.2945  139.2725  165.2107 C.3     1  UNL1        0.1661
      9 O         140.0815  138.0764  164.7636 O.3     1  UNL1       -0.3771
     10 H         139.8056  137.8239  163.8686 H       1  UNL1        0.2109
     11 C         140.8039  141.5283  168.1060 C.ar    1  UNL1        0.1510
     12 C         140.5646  140.9377  166.7480 C.ar    1  UNL1        0.0548
     13 C         139.5337  139.8630  166.5686 C.ar    1  UNL1        0.0901
     14 N         138.7421  139.3787  167.7471 N.ar    1  UNL1       -0.2448
     15 C         138.9815  139.9693  169.1051 C.ar    1  UNL1        0.1118
     16 C         140.0123  141.0440  169.2845 C.ar    1  UNL1        0.1213
     17 C         143.2033  142.2528  168.7901 C.3     1  UNL1        0.2525
     18 O         141.8348  142.6031  168.2855 O.3     1  UNL1       -0.4707
     19 C         140.2516  141.6345  170.6425 C.1     1  UNL1        0.1051
     20 N         140.4907  142.2249  172.0005 N.1     1  UNL1       -0.1907
     21 C         139.8965  144.0285  160.2843 C.3     1  UNL1        0.1064
     22 C         141.2227  144.7173  160.4134 C.3     1  UNL1        0.1483
     23 O         141.6664  145.6930  159.3641 O.3     1  UNL1       -0.3786
     24 H         142.5395  146.0448  159.5982 H       1  UNL1        0.2108
     25 C         142.1053  144.4304  161.5920 C.ar    1  UNL1        0.0015
     26 C         141.9284  145.2009  162.8666 C.ar    1  UNL1       -0.0020
     27 C         142.8109  144.9140  164.0451 C.ar    1  UNL1        0.0060
     28 C         143.8704  143.8565  163.9489 C.ar    1  UNL1        0.0748
     29 C         144.0473  143.0859  162.6741 C.ar    1  UNL1        0.0233
     30 C         143.1648  143.3728  161.4957 C.ar    1  UNL1       -0.0238
     31 C         143.3417  142.6023  160.2209 C.3     1  UNL1        0.0306
     32 C         145.1683  142.1096  162.8744 C.3     1  UNL1        0.2352
     33 O         145.6842  142.2768  164.2730 O.3     1  UNL1       -0.4404
     34 C         144.8821  143.3565  164.9370 C.2     1  UNL1        0.3413
     35 O         145.0603  143.8494  166.3424 O.2     1  UNL1       -0.2449
@<TRIPOS>BOND
     1    17    18    1
     2    18    11    1
     3    11    12   ar
     4    12    13   ar
     5    13     8    1
     6     8     9    1
     7     8     7    1
     8     7     1    1
     9     1     2    1
    10     2     3    1
    11     3     4    1
    12     4    21    1
    13    21    22    1
    14    22    23    1
    15    22    25    1
    16    25    26   ar
    17    26    27   ar
    18    27    28   ar
    19    28    29   ar
    20    29    30   ar
    21    30    31    1
    22    29    32    1
    23    32    33    1
    24    33    34    1
    25    34    35    2
    26     4     5    1
    27     5     6    1
    28    13    14   ar
    29    14    15   ar
    30    15    16   ar
    31    16    19    1
    32    19    20    3
    33    16    11   ar
    34     6     1    1
    35    30    25   ar
    36    34    28    1
    37     9    10    1
    38    23    24    1
@<TRIPOS>MOLECULE
*****
 35 38 0 0 0
SMALL
GASTEIGER

@<TRIPOS>ATOM
      1 N         143.8448  139.9625  163.4478 N.3     1  UNL1       -0.2679
      2 C         143.9698  141.0890  164.4304 C.3     1  UNL1        0.0897
      3 C         143.3030  140.9928  165.7705 C.3     1  UNL1        0.0897
      4 N         142.5111  139.7699  166.1281 N.3     1  UNL1       -0.2680
      5 C         142.3861  138.6434  165.1456 C.3     1  UNL1        0.0897
      6 C         143.0529  138.7398  163.8054 C.3     1  UNL1        0.0897
      7 C         144.5116  140.0588  162.1076 C.3     1  UNL1        0.1080
      8 C         143.7232  140.4908  160.9068 C.3     1  UNL1        0.1661
      9 O         143.7785  139.6841  159.6435 O.3     1  UNL1       -0.3771
     10 H         144.3649  138.9221  159.7718 H       1  UNL1        0.2109
     11 C         140.6237  142.9399  160.5268 C.ar    1  UNL1        0.1510
     12 C         141.4674  141.7013  160.4642 C.ar    1  UNL1        0.0548
     13 C         142.8795  141.7294  160.9695 C.ar    1  UNL1        0.0901
     14 N         143.4478  142.9961  161.5373 N.ar    1  UNL1       -0.2448
     15 C         142.6041  144.2347  161.5999 C.ar    1  UNL1        0.1118
     16 C         141.1920  144.2066  161.0947 C.ar    1  UNL1        0.1213
     17 C         138.9435  142.8748  158.5462 C.3     1  UNL1        0.2525
     18 O         139.2116  142.9119  160.0216 O.3     1  UNL1       -0.4707
     19 C         140.3483  145.4453  161.1573 C.1     1  UNL1        0.1051
     20 N         139.5046  146.6840  161.2199 N.1     1  UNL1       -0.1907
     21 C         141.8443  139.6737  167.4683 C.3     1  UNL1        0.1064
     22 C         140.4288  140.1403  167.6369 C.3     1  UNL1        0.1483
     23 O         139.6683  139.7941  168.8826 O.3     1  UNL1       -0.3786
     24 H         138.7755  140.1699  168.8314 H       1  UNL1        0.2108
     25 C         139.7737  140.9533  166.5598 C.ar    1  UNL1        0.0015
     26 C         139.9517  142.4423  166.5309 C.ar    1  UNL1       -0.0020
     27 C         139.2966  143.2552  165.4538 C.ar    1  UNL1        0.0060
     28 C         138.4636  142.5790  164.4056 C.ar    1  UNL1        0.0748
     29 C         138.2855  141.0899  164.4345 C.ar    1  UNL1        0.0233
     30 C         138.9406  140.2770  165.5116 C.ar    1  UNL1       -0.0238
     31 C         138.7626  138.7878  165.5406 C.3     1  UNL1        0.0306
     32 C         137.4134  140.7047  163.2765 C.3     1  UNL1        0.2352
     33 O         137.0524  141.9558  162.5319 O.3     1  UNL1       -0.4404
     34 C         137.7014  143.1142  163.2297 C.2     1  UNL1        0.3413
     35 O         137.6052  144.5548  162.8230 O.2     1  UNL1       -0.2449
@<TRIPOS>BOND
     1    17    18    1
     2    18    11    1
     3    11    12   ar
     4    12    13   ar
     5    13     8    1
     6     8     9    1
     7     8     7    1
     8     7     1    1
     9     1     2    1
    10     2     3    1
    11     3     4    1
    12     4    21    1
    13    21    22    1
    14    22    23    1
    15    22    25    1
    16    25    26   ar
    17    26    27   ar
    18    27    28   ar
    19    28    29   ar
    20    29    30   ar
    21    30    31    1
    22    29    32    1
    23    32    33    1
    24    33    34    1
    25    34    35    2
    26     4     5    1
    27     5     6    1
    28    13    14   ar
    29    14    15   ar
    30    15    16   ar
    31    16    19    1
    32    19    20    3
    33    16    11   ar
    34     6     1    1
    35    30    25   ar
    36    34    28    1
    37     9    10    1
    38    23    24    1
@<TRIPOS>MOLECULE
*****
 35 38 0 0 0
SMALL
GASTEIGER

@<TRIPOS>ATOM
      1 N         141.8291  143.9831  164.1938 N.3     1  UNL1       -0.2679
      2 C         140.4890  143.9832  164.8676 C.3     1  UNL1        0.0897
      3 C         140.2981  143.2426  166.1579 C.3     1  UNL1        0.0897
      4 N         141.4476  142.5018  166.7745 N.3     1  UNL1       -0.2680
      5 C         142.7877  142.5016  166.1008 C.3     1  UNL1        0.0897
      6 C         142.9785  143.2423  164.8104 C.3     1  UNL1        0.0897
      7 C         142.0200  144.7238  162.9035 C.3     1  UNL1        0.1080
      8 C         140.8272  145.1992  162.1280 C.3     1  UNL1        0.1661
      9 O         140.3142  146.5953  162.3224 O.3     1  UNL1       -0.3771
     10 H         140.8627  147.0529  162.9787 H       1  UNL1        0.2109
     11 C         138.6698  142.1928  160.6939 C.ar    1  UNL1        0.1510
     12 C         139.3495  143.1135  161.6637 C.ar    1  UNL1        0.0548
     13 C         140.1476  144.2786  161.1582 C.ar    1  UNL1        0.0901
     14 N         140.2661  144.5231  159.6830 N.ar    1  UNL1       -0.2448
     15 C         139.5865  143.6024  158.7133 C.ar    1  UNL1        0.1118
     16 C         138.7883  142.4373  159.2187 C.ar    1  UNL1        0.1213
     17 C         137.2666  141.0717  162.5712 C.3     1  UNL1        0.2525
     18 O         137.8716  141.0277  161.1993 O.3     1  UNL1       -0.4707
     19 C         138.1087  141.5166  158.2489 C.1     1  UNL1        0.1051
     20 N         137.4290  140.5961  157.2790 N.1     1  UNL1       -0.1907
     21 C         141.2567  141.7611  168.0648 C.3     1  UNL1        0.1064
     22 C         140.8034  140.3313  168.0489 C.3     1  UNL1        0.1483
     23 O         140.8085  139.5287  169.3161 O.3     1  UNL1       -0.3786
     24 H         140.4887  138.6317  169.1320 H       1  UNL1        0.2108
     25 C         140.3448  139.7041  166.7657 C.ar    1  UNL1        0.0015
     26 C         138.9057  139.8033  166.3547 C.ar    1  UNL1       -0.0020
     27 C         138.4472  139.1761  165.0716 C.ar    1  UNL1        0.0060
     28 C         139.4279  138.4498  164.1995 C.ar    1  UNL1        0.0748
     29 C         140.8671  138.3506  164.6104 C.ar    1  UNL1        0.0233
     30 C         141.3256  138.9778  165.8935 C.ar    1  UNL1       -0.0238
     31 C         142.7648  138.8787  166.3046 C.3     1  UNL1        0.0306
     32 C         141.5986  137.5768  163.5540 C.3     1  UNL1        0.2352
     33 O         140.6115  137.1977  162.4901 O.3     1  UNL1       -0.4404
     34 C         139.2699  137.7372  162.8890 C.2     1  UNL1        0.3413
     35 O         137.9944  137.5900  162.1136 O.2     1  UNL1       -0.2449
@<TRIPOS>BOND
     1    17    18    1
     2    18    11    1
     3    11    12   ar
     4    12    13   ar
     5    13     8    1
     6     8     9    1
     7     8     7    1
     8     7     1    1
     9     1     2    1
    10     2     3    1
    11     3     4    1
    12     4    21    1
    13    21    22    1
    14    22    23    1
    15    22    25    1
    16    25    26   ar
    17    26    27   ar
    18    27    28   ar
    19    28    29   ar
    20    29    30   ar
    21    30    31    1
    22    29    32    1
    23    32    33    1
    24    33    34    1
    25    34    35    2
    26     4     5    1
    27     5     6    1
    28    13    14   ar
    29    14    15   ar
    30    15    16   ar
    31    16    19    1
    32    19    20    3
    33    16    11   ar
    34     6     1    1
    35    30    25   ar
    36    34    28    1
    37     9    10    1
    38    23    24    1
