@<TRIPOS>MOLECULE
*****
 32 35 0 0 0
SMALL
GASTEIGER

@<TRIPOS>ATOM
      1 C         141.4430  144.4988  161.0385 C.3     1  UNL1        0.1372
      2 O         142.6361  145.0522  161.7599 O.3     1  UNL1       -0.3802
      3 H         142.3396  145.5813  162.5169 H       1  UNL1        0.2108
      4 C         142.3514  143.8267  160.0520 C.ar    1  UNL1        0.0316
      5 C         142.2865  144.1967  158.5998 C.ar    1  UNL1        0.0026
      6 C         143.1947  143.5247  157.6132 C.ar    1  UNL1        0.0295
      7 C         144.1679  142.4825  158.0788 C.ar    1  UNL1        0.1424
      8 F         145.0762  141.8105  157.0923 F       1  UNL1       -0.2041
      9 C         144.2328  142.1125  159.5311 C.ar    1  UNL1        0.0590
     10 C         143.3246  142.7845  160.5176 C.ar    1  UNL1        0.1406
     11 F         143.3895  142.4145  161.9698 F       1  UNL1       -0.2044
     12 C         139.8871  146.1988  162.0117 C.3     1  UNL1        0.0097
     13 C         140.5348  145.1710  162.0250 C.3     1  UNL1        0.0770
     14 C         140.2838  144.5415  163.3633 C.ar    1  UNL1        0.0905
     15 N         141.1325  143.4915  164.0168 N.ar    1  UNL1       -0.2426
     16 C         140.5133  143.1526  165.3403 C.ar    1  UNL1        0.0880
     17 C         139.2819  143.9932  165.5047 C.ar    1  UNL1        0.0556
     18 S         139.1400  144.8516  164.2829 S.2     1  UNL1       -0.0702
     19 C         141.0340  142.1493  166.3263 C.ar    1  UNL1        0.0182
     20 C         140.7648  142.3277  167.7911 C.ar    1  UNL1        0.0022
     21 C         141.2855  141.3244  168.7770 C.ar    1  UNL1        0.0103
     22 C         142.0755  140.1426  168.2982 C.ar    1  UNL1        0.0684
     23 C         142.3448  139.9641  166.8334 C.ar    1  UNL1        0.0103
     24 C         141.8240  140.9675  165.8475 C.ar    1  UNL1        0.0022
     25 C         142.5963  139.1392  169.2842 C.1     1  UNL1        0.1004
     26 N         143.1170  138.1360  170.2702 N.1     1  UNL1       -0.1908
     27 C         140.2500  143.9455  160.3171 C.3     1  UNL1        0.1606
     28 N         139.4942  142.7866  160.8967 N.ar    1  UNL1       -0.2273
     29 C         140.0613  141.4352  161.2160 C.ar    1  UNL1        0.1973
     30 N         138.9562  140.5891  161.7753 N.ar    1  UNL1       -0.2007
     31 C         137.7060  141.4177  161.8017 C.ar    1  UNL1        0.2210
     32 N         138.0385  142.7758  161.2586 N.ar    1  UNL1       -0.1451
@<TRIPOS>BOND
     1    13    12    1
     2    13    14    1
     3    14    15   ar
     4    15    16   ar
     5    16    19    1
     6    19    20   ar
     7    20    21   ar
     8    21    22   ar
     9    22    25    1
    10    25    26    3
    11    22    23   ar
    12    23    24   ar
    13    16    17   ar
    14    17    18   ar
    15    13     1    1
    16     1     2    1
    17     1    27    1
    18    27    28    1
    19    28    29   ar
    20    29    30   ar
    21    30    31   ar
    22    31    32   ar
    23     1     4    1
    24     4     5   ar
    25     5     6   ar
    26     6     7   ar
    27     7     8    1
    28     7     9   ar
    29     9    10   ar
    30    10    11    1
    31    18    14   ar
    32    32    28   ar
    33    10     4   ar
    34    24    19   ar
    35     2     3    1
@<TRIPOS>MOLECULE
*****
 32 35 0 0 0
SMALL
GASTEIGER

@<TRIPOS>ATOM
      1 C         138.9529  141.6305  160.5571 C.3     1  UNL1        0.1372
      2 O         138.1190  142.5554  161.3935 O.3     1  UNL1       -0.3802
      3 H         137.4925  142.0368  161.9222 H       1  UNL1        0.2108
      4 C         139.6856  142.8080  159.9857 C.ar    1  UNL1        0.0316
      5 C         139.5091  143.1723  158.5413 C.ar    1  UNL1        0.0026
      6 C         140.2417  144.3498  157.9698 C.ar    1  UNL1        0.0295
      7 C         141.1510  145.1630  158.8426 C.ar    1  UNL1        0.1424
      8 F         141.8837  146.3405  158.2711 F       1  UNL1       -0.2041
      9 C         141.3276  144.7988  160.2870 C.ar    1  UNL1        0.0590
     10 C         140.5949  143.6213  160.8585 C.ar    1  UNL1        0.1406
     11 F         140.7714  143.2570  162.3029 F       1  UNL1       -0.2044
     12 C         137.3552  139.7113  160.7067 C.3     1  UNL1        0.0097
     13 C         138.2200  140.4531  161.1286 C.3     1  UNL1        0.0770
     14 C         138.5262  139.9821  162.5195 C.ar    1  UNL1        0.0905
     15 N         138.8105  140.8572  163.7041 N.ar    1  UNL1       -0.2426
     16 C         139.0618  139.9693  164.8867 C.ar    1  UNL1        0.0880
     17 C         138.9327  138.5454  164.4329 C.ar    1  UNL1        0.0556
     18 S         138.6017  138.5533  162.9699 S.2     1  UNL1       -0.0702
     19 C         139.3853  140.4253  166.2786 C.ar    1  UNL1        0.0182
     20 C         140.1298  141.7096  166.4931 C.ar    1  UNL1        0.0022
     21 C         140.4533  142.1655  167.8850 C.ar    1  UNL1        0.0103
     22 C         140.0323  141.3370  169.0625 C.ar    1  UNL1        0.0684
     23 C         139.2878  140.0526  168.8480 C.ar    1  UNL1        0.0103
     24 C         138.9643  139.5968  167.4561 C.ar    1  UNL1        0.0022
     25 C         140.3559  141.7929  170.4544 C.1     1  UNL1        0.1004
     26 N         140.6794  142.2488  171.8464 N.1     1  UNL1       -0.1908
     27 C         139.7867  140.7057  159.7209 C.3     1  UNL1        0.1606
     28 N         140.8760  139.8951  160.3583 N.ar    1  UNL1       -0.2273
     29 C         141.1680  138.4478  160.0934 C.ar    1  UNL1        0.1973
     30 N         142.3370  138.0477  160.9439 N.ar    1  UNL1       -0.2007
     31 C         142.7674  139.2476  161.7344 C.ar    1  UNL1        0.2210
     32 N         141.8645  140.3894  161.3725 N.ar    1  UNL1       -0.1451
@<TRIPOS>BOND
     1    13    12    1
     2    13    14    1
     3    14    15   ar
     4    15    16   ar
     5    16    19    1
     6    19    20   ar
     7    20    21   ar
     8    21    22   ar
     9    22    25    1
    10    25    26    3
    11    22    23   ar
    12    23    24   ar
    13    16    17   ar
    14    17    18   ar
    15    13     1    1
    16     1     2    1
    17     1    27    1
    18    27    28    1
    19    28    29   ar
    20    29    30   ar
    21    30    31   ar
    22    31    32   ar
    23     1     4    1
    24     4     5   ar
    25     5     6   ar
    26     6     7   ar
    27     7     8    1
    28     7     9   ar
    29     9    10   ar
    30    10    11    1
    31    18    14   ar
    32    32    28   ar
    33    10     4   ar
    34    24    19   ar
    35     2     3    1
@<TRIPOS>MOLECULE
*****
 32 35 0 0 0
SMALL
GASTEIGER

@<TRIPOS>ATOM
      1 C         140.6031  141.2459  160.4146 C.3     1  UNL1        0.1372
      2 O         141.2122  139.9991  160.9844 O.3     1  UNL1       -0.3802
      3 H         140.5233  139.4721  161.4189 H       1  UNL1        0.2108
      4 C         141.9482  141.6693  159.9034 C.ar    1  UNL1        0.0316
      5 C         142.2282  141.6575  158.4298 C.ar    1  UNL1        0.0026
      6 C         143.5734  142.0809  157.9186 C.ar    1  UNL1        0.0295
      7 C         144.6385  142.5161  158.8809 C.ar    1  UNL1        0.1424
      8 F         145.9836  142.9395  158.3697 F       1  UNL1       -0.2041
      9 C         144.3585  142.5279  160.3545 C.ar    1  UNL1        0.0590
     10 C         143.0134  142.1045  160.8658 C.ar    1  UNL1        0.1406
     11 F         142.7334  142.1162  162.3394 F       1  UNL1       -0.2044
     12 C         138.1548  140.7324  160.4249 C.3     1  UNL1        0.0097
     13 C         139.2580  140.8223  160.9258 C.3     1  UNL1        0.0770
     14 C         139.1003  140.3900  162.3534 C.ar    1  UNL1        0.0905
     15 N         139.6117  141.1228  163.5582 N.ar    1  UNL1       -0.2426
     16 C         139.2310  140.3347  164.7763 C.ar    1  UNL1        0.0880
     17 C         138.4842  139.1148  164.3244 C.ar    1  UNL1        0.0556
     18 S         138.4034  139.1490  162.8270 S.2     1  UNL1       -0.0702
     19 C         139.5423  140.7020  166.1970 C.ar    1  UNL1        0.0182
     20 C         139.2080  139.7513  167.3080 C.ar    1  UNL1        0.0022
     21 C         139.5194  140.1186  168.7285 C.ar    1  UNL1        0.0103
     22 C         140.1650  141.4366  169.0382 C.ar    1  UNL1        0.0684
     23 C         140.4993  142.3874  167.9272 C.ar    1  UNL1        0.0103
     24 C         140.1880  142.0201  166.5066 C.ar    1  UNL1        0.0022
     25 C         140.4764  141.8039  170.4588 C.1     1  UNL1        0.1004
     26 N         140.7878  142.1712  171.8794 N.1     1  UNL1       -0.1908
     27 C         139.9941  142.4926  159.8448 C.3     1  UNL1        0.1606
     28 N         139.8965  143.7313  160.6851 N.ar    1  UNL1       -0.2273
     29 C         140.8071  144.9209  160.6111 C.ar    1  UNL1        0.1973
     30 N         140.3446  145.9226  161.6272 N.ar    1  UNL1       -0.2007
     31 C         139.1481  145.3521  162.3293 C.ar    1  UNL1        0.2210
     32 N         138.8711  143.9978  161.7471 N.ar    1  UNL1       -0.1451
@<TRIPOS>BOND
     1    13    12    1
     2    13    14    1
     3    14    15   ar
     4    15    16   ar
     5    16    19    1
     6    19    20   ar
     7    20    21   ar
     8    21    22   ar
     9    22    25    1
    10    25    26    3
    11    22    23   ar
    12    23    24   ar
    13    16    17   ar
    14    17    18   ar
    15    13     1    1
    16     1     2    1
    17     1    27    1
    18    27    28    1
    19    28    29   ar
    20    29    30   ar
    21    30    31   ar
    22    31    32   ar
    23     1     4    1
    24     4     5   ar
    25     5     6   ar
    26     6     7   ar
    27     7     8    1
    28     7     9   ar
    29     9    10   ar
    30    10    11    1
    31    18    14   ar
    32    32    28   ar
    33    10     4   ar
    34    24    19   ar
    35     2     3    1
@<TRIPOS>MOLECULE
*****
 32 35 0 0 0
SMALL
GASTEIGER

@<TRIPOS>ATOM
      1 C         142.9332  140.9312  166.1811 C.3     1  UNL1        0.1372
      2 O         143.7024  142.2145  166.0737 O.3     1  UNL1       -0.3802
      3 H         144.3446  142.1469  165.3498 H       1  UNL1        0.2108
      4 C         142.1519  141.4957  167.3304 C.ar    1  UNL1        0.0316
      5 C         142.4170  141.0140  168.7260 C.ar    1  UNL1        0.0026
      6 C         141.6358  141.5785  169.8754 C.ar    1  UNL1        0.0295
      7 C         140.5895  142.6247  169.6292 C.ar    1  UNL1        0.1424
      8 F         139.8084  143.1892  170.7786 F       1  UNL1       -0.2041
      9 C         140.3244  143.1065  168.2336 C.ar    1  UNL1        0.0590
     10 C         141.1056  142.5420  167.0842 C.ar    1  UNL1        0.1406
     11 F         140.8405  143.0237  165.6886 F       1  UNL1       -0.2044
     12 C         144.2998  139.3190  164.8428 C.3     1  UNL1        0.0097
     13 C         143.7145  140.3667  165.0318 C.3     1  UNL1        0.0770
     14 C         143.8886  141.1697  163.7769 C.ar    1  UNL1        0.0905
     15 N         142.8029  141.8892  163.0328 N.ar    1  UNL1       -0.2426
     16 C         143.4222  142.5584  161.8418 C.ar    1  UNL1        0.0880
     17 C         144.8907  142.2525  161.8497 C.ar    1  UNL1        0.0556
     18 S         145.1789  141.3942  163.0456 S.2     1  UNL1       -0.0702
     19 C         142.6999  143.3879  160.8218 C.ar    1  UNL1        0.0182
     20 C         141.6567  144.3732  161.2588 C.ar    1  UNL1        0.0022
     21 C         140.9345  145.2026  160.2389 C.ar    1  UNL1        0.0103
     22 C         141.2554  145.0468  158.7819 C.ar    1  UNL1        0.0684
     23 C         142.2986  144.0616  158.3449 C.ar    1  UNL1        0.0103
     24 C         143.0208  143.2321  159.3649 C.ar    1  UNL1        0.0022
     25 C         140.5331  145.8763  157.7620 C.1     1  UNL1        0.1004
     26 N         139.8109  146.7059  156.7421 N.1     1  UNL1       -0.1908
     27 C         142.1640  139.6480  166.2885 C.3     1  UNL1        0.1606
     28 N         140.7817  139.5518  165.7140 N.ar    1  UNL1       -0.2273
     29 C         139.5176  139.3305  166.4906 C.ar    1  UNL1        0.1973
     30 N         138.3754  139.3021  165.5186 N.ar    1  UNL1       -0.2007
     31 C         138.9337  139.5058  164.1413 C.ar    1  UNL1        0.2210
     32 N         140.4208  139.6601  164.2621 N.ar    1  UNL1       -0.1451
@<TRIPOS>BOND
     1    13    12    1
     2    13    14    1
     3    14    15   ar
     4    15    16   ar
     5    16    19    1
     6    19    20   ar
     7    20    21   ar
     8    21    22   ar
     9    22    25    1
    10    25    26    3
    11    22    23   ar
    12    23    24   ar
    13    16    17   ar
    14    17    18   ar
    15    13     1    1
    16     1     2    1
    17     1    27    1
    18    27    28    1
    19    28    29   ar
    20    29    30   ar
    21    30    31   ar
    22    31    32   ar
    23     1     4    1
    24     4     5   ar
    25     5     6   ar
    26     6     7   ar
    27     7     8    1
    28     7     9   ar
    29     9    10   ar
    30    10    11    1
    31    18    14   ar
    32    32    28   ar
    33    10     4   ar
    34    24    19   ar
    35     2     3    1
@<TRIPOS>MOLECULE
*****
 32 35 0 0 0
SMALL
GASTEIGER

@<TRIPOS>ATOM
      1 C         142.9978  140.0987  165.7540 C.3     1  UNL1        0.1372
      2 O         143.3269  141.5469  165.9651 O.3     1  UNL1       -0.3802
      3 H         144.0664  141.7977  165.3896 H       1  UNL1        0.2108
      4 C         141.9012  140.1995  166.7724 C.ar    1  UNL1        0.0316
      5 C         140.6273  140.9157  166.4344 C.ar    1  UNL1        0.0026
      6 C         139.5306  141.0165  167.4528 C.ar    1  UNL1        0.0295
      7 C         139.7078  140.4012  168.8092 C.ar    1  UNL1        0.1424
      8 F         138.6112  140.5021  169.8276 F       1  UNL1       -0.2041
      9 C         140.9817  139.6850  169.1473 C.ar    1  UNL1        0.0590
     10 C         142.0784  139.5842  168.1289 C.ar    1  UNL1        0.1406
     11 F         143.3523  138.8680  168.4669 F       1  UNL1       -0.2044
     12 C         145.0070  139.2172  164.5522 C.3     1  UNL1        0.0097
     13 C         144.0944  139.9981  164.7355 C.3     1  UNL1        0.0770
     14 C         144.2035  141.0242  163.6469 C.ar    1  UNL1        0.0905
     15 N         143.0643  141.5923  162.8533 N.ar    1  UNL1       -0.2426
     16 C         143.6276  142.5816  161.8767 C.ar    1  UNL1        0.0880
     17 C         145.1150  142.6250  162.0666 C.ar    1  UNL1        0.0556
     18 S         145.4709  141.6625  163.1606 S.2     1  UNL1       -0.0702
     19 C         142.8417  143.3863  160.8843 C.ar    1  UNL1        0.0182
     20 C         143.1170  143.2434  159.4167 C.ar    1  UNL1        0.0022
     21 C         142.3310  144.0481  158.4245 C.ar    1  UNL1        0.0103
     22 C         141.2697  144.9956  158.8997 C.ar    1  UNL1        0.0684
     23 C         140.9944  145.1385  160.3673 C.ar    1  UNL1        0.0103
     24 C         141.7804  144.3338  161.3596 C.ar    1  UNL1        0.0022
     25 C         140.4837  145.8003  157.9073 C.1     1  UNL1        0.1004
     26 N         139.6977  146.6050  156.9150 N.1     1  UNL1       -0.1908
     27 C         142.6688  138.6506  165.5429 C.3     1  UNL1        0.1606
     28 N         141.6644  138.2538  164.5018 N.ar    1  UNL1       -0.2273
     29 C         140.2525  137.8178  164.7597 C.ar    1  UNL1        0.1973
     30 N         139.6111  137.5179  163.4374 N.ar    1  UNL1       -0.2007
     31 C         140.6266  137.7684  162.3622 C.ar    1  UNL1        0.2210
     32 N         141.8956  138.2233  163.0200 N.ar    1  UNL1       -0.1451
@<TRIPOS>BOND
     1    13    12    1
     2    13    14    1
     3    14    15   ar
     4    15    16   ar
     5    16    19    1
     6    19    20   ar
     7    20    21   ar
     8    21    22   ar
     9    22    25    1
    10    25    26    3
    11    22    23   ar
    12    23    24   ar
    13    16    17   ar
    14    17    18   ar
    15    13     1    1
    16     1     2    1
    17     1    27    1
    18    27    28    1
    19    28    29   ar
    20    29    30   ar
    21    30    31   ar
    22    31    32   ar
    23     1     4    1
    24     4     5   ar
    25     5     6   ar
    26     6     7   ar
    27     7     8    1
    28     7     9   ar
    29     9    10   ar
    30    10    11    1
    31    18    14   ar
    32    32    28   ar
    33    10     4   ar
    34    24    19   ar
    35     2     3    1
@<TRIPOS>MOLECULE
*****
 32 35 0 0 0
SMALL
GASTEIGER

@<TRIPOS>ATOM
      1 C         139.7568  142.1274  165.5075 C.3     1  UNL1        0.1372
      2 O         140.8687  143.1325  165.5683 O.3     1  UNL1       -0.3802
      3 H         140.6587  143.8824  164.9901 H       1  UNL1        0.2108
      4 C         140.4945  141.2527  166.4774 C.ar    1  UNL1        0.0316
      5 C         139.9729  141.0738  167.8724 C.ar    1  UNL1        0.0026
      6 C         140.7105  140.1991  168.8424 C.ar    1  UNL1        0.0295
      7 C         141.9696  139.5034  168.4174 C.ar    1  UNL1        0.1424
      8 F         142.7071  138.6287  169.3874 F       1  UNL1       -0.2041
      9 C         142.4911  139.6823  167.0224 C.ar    1  UNL1        0.0590
     10 C         141.7535  140.5570  166.0524 C.ar    1  UNL1        0.1406
     11 F         142.2751  140.7359  164.6574 F       1  UNL1       -0.2044
     12 C         137.8940  143.4589  164.4998 C.3     1  UNL1        0.0097
     13 C         139.0192  143.0022  164.5376 C.3     1  UNL1        0.0770
     14 C         139.7061  143.4925  163.2974 C.ar    1  UNL1        0.0905
     15 N         140.8405  142.8119  162.5902 N.ar    1  UNL1       -0.2426
     16 C         141.2147  143.6482  161.4026 C.ar    1  UNL1        0.0880
     17 C         140.3116  144.8456  161.3757 C.ar    1  UNL1        0.0556
     18 S         139.3793  144.7494  162.5468 S.2     1  UNL1       -0.0702
     19 C         142.3012  143.3410  160.4150 C.ar    1  UNL1        0.0182
     20 C         142.1021  143.6495  158.9607 C.ar    1  UNL1        0.0022
     21 C         143.1886  143.3423  157.9733 C.ar    1  UNL1        0.0103
     22 C         144.4742  142.7266  158.4402 C.ar    1  UNL1        0.0684
     23 C         144.6734  142.4180  159.8945 C.ar    1  UNL1        0.0103
     24 C         143.5869  142.7252  160.8819 C.ar    1  UNL1        0.0022
     25 C         145.5608  142.4194  157.4526 C.1     1  UNL1        0.1004
     26 N         146.6473  142.1122  156.4652 N.1     1  UNL1       -0.1908
     27 C         138.6450  141.1225  165.4467 C.3     1  UNL1        0.1606
     28 N         138.7591  139.9316  164.5418 N.ar    1  UNL1       -0.2273
     29 C         138.8213  138.4971  164.9760 C.ar    1  UNL1        0.1973
     30 N         138.9318  137.6451  163.7465 N.ar    1  UNL1       -0.2007
     31 C         138.9379  138.5529  162.5524 C.ar    1  UNL1        0.2210
     32 N         138.8313  139.9660  163.0439 N.ar    1  UNL1       -0.1451
@<TRIPOS>BOND
     1    13    12    1
     2    13    14    1
     3    14    15   ar
     4    15    16   ar
     5    16    19    1
     6    19    20   ar
     7    20    21   ar
     8    21    22   ar
     9    22    25    1
    10    25    26    3
    11    22    23   ar
    12    23    24   ar
    13    16    17   ar
    14    17    18   ar
    15    13     1    1
    16     1     2    1
    17     1    27    1
    18    27    28    1
    19    28    29   ar
    20    29    30   ar
    21    30    31   ar
    22    31    32   ar
    23     1     4    1
    24     4     5   ar
    25     5     6   ar
    26     6     7   ar
    27     7     8    1
    28     7     9   ar
    29     9    10   ar
    30    10    11    1
    31    18    14   ar
    32    32    28   ar
    33    10     4   ar
    34    24    19   ar
    35     2     3    1
@<TRIPOS>MOLECULE
*****
 32 35 0 0 0
SMALL
GASTEIGER

@<TRIPOS>ATOM
      1 C         139.3011  139.6701  165.3808 C.3     1  UNL1        0.1372
      2 O         138.1236  140.5367  165.0451 O.3     1  UNL1       -0.3802
      3 H         137.6609  140.1696  164.2756 H       1  UNL1        0.2108
      4 C         139.6436  140.5786  166.5242 C.ar    1  UNL1        0.0316
      5 C         139.5394  140.0803  167.9352 C.ar    1  UNL1        0.0026
      6 C         139.8819  140.9887  169.0786 C.ar    1  UNL1        0.0295
      7 C         140.3286  142.3955  168.8111 C.ar    1  UNL1        0.1424
      8 F         140.6711  143.3039  169.9545 F       1  UNL1       -0.2041
      9 C         140.4328  142.8938  167.4001 C.ar    1  UNL1        0.0590
     10 C         140.0903  141.9854  166.2567 C.ar    1  UNL1        0.1406
     11 F         140.1945  142.4837  164.8457 F       1  UNL1       -0.2044
     12 C         138.8223  137.5595  164.1261 C.3     1  UNL1        0.0097
     13 C         138.9584  138.7617  164.2374 C.3     1  UNL1        0.0770
     14 C         138.7029  139.3346  162.8749 C.ar    1  UNL1        0.0905
     15 N         139.2971  140.5967  162.3235 N.ar    1  UNL1       -0.2426
     16 C         138.7698  140.7881  160.9324 C.ar    1  UNL1        0.0880
     17 C         137.8497  139.6442  160.6240 C.ar    1  UNL1        0.0556
     18 S         137.8084  138.7459  161.8245 S.2     1  UNL1       -0.0702
     19 C         139.1038  141.9239  160.0113 C.ar    1  UNL1        0.0182
     20 C         138.6658  141.8804  158.5774 C.ar    1  UNL1        0.0022
     21 C         138.9999  143.0162  157.6564 C.ar    1  UNL1        0.0103
     22 C         139.7720  144.1955  158.1693 C.ar    1  UNL1        0.0684
     23 C         140.2100  144.2390  159.6032 C.ar    1  UNL1        0.0103
     24 C         139.8760  143.1032  160.5242 C.ar    1  UNL1        0.0022
     25 C         140.1061  145.3314  157.2482 C.1     1  UNL1        0.1004
     26 N         140.4402  146.4671  156.3271 N.1     1  UNL1       -0.1908
     27 C         140.4785  138.8036  165.7165 C.3     1  UNL1        0.1606
     28 N         141.8358  139.1394  165.1735 N.ar    1  UNL1       -0.2273
     29 C         143.1407  138.5734  165.6498 C.ar    1  UNL1        0.1973
     30 N         144.2379  139.1843  164.8295 N.ar    1  UNL1       -0.2007
     31 C         143.6111  140.1278  163.8462 C.ar    1  UNL1        0.2210
     32 N         142.1265  140.1001  164.0587 N.ar    1  UNL1       -0.1451
@<TRIPOS>BOND
     1    13    12    1
     2    13    14    1
     3    14    15   ar
     4    15    16   ar
     5    16    19    1
     6    19    20   ar
     7    20    21   ar
     8    21    22   ar
     9    22    25    1
    10    25    26    3
    11    22    23   ar
    12    23    24   ar
    13    16    17   ar
    14    17    18   ar
    15    13     1    1
    16     1     2    1
    17     1    27    1
    18    27    28    1
    19    28    29   ar
    20    29    30   ar
    21    30    31   ar
    22    31    32   ar
    23     1     4    1
    24     4     5   ar
    25     5     6   ar
    26     6     7   ar
    27     7     8    1
    28     7     9   ar
    29     9    10   ar
    30    10    11    1
    31    18    14   ar
    32    32    28   ar
    33    10     4   ar
    34    24    19   ar
    35     2     3    1
@<TRIPOS>MOLECULE
*****
 32 35 0 0 0
SMALL
GASTEIGER

@<TRIPOS>ATOM
      1 C         140.2999  141.6824  164.8112 C.3     1  UNL1        0.1372
      2 O         141.3948  142.6817  164.5815 O.3     1  UNL1       -0.3802
      3 H         141.0124  143.5110  164.2547 H       1  UNL1        0.2108
      4 C         141.3143  140.6755  165.2661 C.ar    1  UNL1        0.0316
      5 C         141.4542  140.3587  166.7256 C.ar    1  UNL1        0.0026
      6 C         142.4686  139.3517  167.1806 C.ar    1  UNL1        0.0295
      7 C         143.3431  138.6616  166.1762 C.ar    1  UNL1        0.1424
      8 F         144.3575  137.6546  166.6312 F       1  UNL1       -0.2041
      9 C         143.2031  138.9784  164.7167 C.ar    1  UNL1        0.0590
     10 C         142.1888  139.9853  164.2616 C.ar    1  UNL1        0.1406
     11 F         142.0488  140.3021  162.8021 F       1  UNL1       -0.2044
     12 C         138.1520  142.9601  164.6998 C.3     1  UNL1        0.0097
     13 C         139.2855  142.6895  164.3563 C.3     1  UNL1        0.0770
     14 C         139.6149  143.6331  163.2378 C.ar    1  UNL1        0.0905
     15 N         140.2305  143.2600  161.9218 N.ar    1  UNL1       -0.2426
     16 C         140.3826  144.5118  161.1096 C.ar    1  UNL1        0.0880
     17 C         139.8609  145.6587  161.9235 C.ar    1  UNL1        0.0556
     18 S         139.3865  145.1157  163.2388 S.2     1  UNL1       -0.0702
     19 C         140.9557  144.6011  159.7262 C.ar    1  UNL1        0.0182
     20 C         140.3237  145.5049  158.7095 C.ar    1  UNL1        0.0022
     21 C         140.8969  145.5942  157.3262 C.ar    1  UNL1        0.0103
     22 C         142.1019  144.7797  156.9596 C.ar    1  UNL1        0.0684
     23 C         142.7339  143.8759  157.9763 C.ar    1  UNL1        0.0103
     24 C         142.1607  143.7866  159.3596 C.ar    1  UNL1        0.0022
     25 C         142.6750  144.8690  155.5763 C.1     1  UNL1        0.1004
     26 N         143.2481  144.9583  154.1930 N.1     1  UNL1       -0.1908
     27 C         139.2050  140.6833  165.0409 C.3     1  UNL1        0.1606
     28 N         138.9077  139.6441  164.0008 N.ar    1  UNL1       -0.2273
     29 C         138.9723  138.1582  164.1954 C.ar    1  UNL1        0.1973
     30 N         138.5982  137.5042  162.8984 N.ar    1  UNL1       -0.2007
     31 C         138.3024  138.5859  161.9021 C.ar    1  UNL1        0.2210
     32 N         138.4937  139.9085  162.5834 N.ar    1  UNL1       -0.1451
@<TRIPOS>BOND
     1    13    12    1
     2    13    14    1
     3    14    15   ar
     4    15    16   ar
     5    16    19    1
     6    19    20   ar
     7    20    21   ar
     8    21    22   ar
     9    22    25    1
    10    25    26    3
    11    22    23   ar
    12    23    24   ar
    13    16    17   ar
    14    17    18   ar
    15    13     1    1
    16     1     2    1
    17     1    27    1
    18    27    28    1
    19    28    29   ar
    20    29    30   ar
    21    30    31   ar
    22    31    32   ar
    23     1     4    1
    24     4     5   ar
    25     5     6   ar
    26     6     7   ar
    27     7     8    1
    28     7     9   ar
    29     9    10   ar
    30    10    11    1
    31    18    14   ar
    32    32    28   ar
    33    10     4   ar
    34    24    19   ar
    35     2     3    1
@<TRIPOS>MOLECULE
*****
 32 35 0 0 0
SMALL
GASTEIGER

@<TRIPOS>ATOM
      1 C         141.7956  141.2234  166.0508 C.3     1  UNL1        0.1372
      2 O         142.5088  139.9474  165.7140 O.3     1  UNL1       -0.3802
      3 H         143.4195  140.1470  165.4464 H       1  UNL1        0.2108
      4 C         140.5539  140.4449  166.3707 C.ar    1  UNL1        0.0316
      5 C         140.0593  140.3698  167.7848 C.ar    1  UNL1        0.0026
      6 C         138.8178  139.5913  168.1048 C.ar    1  UNL1        0.0295
      7 C         138.0708  138.8879  167.0107 C.ar    1  UNL1        0.1424
      8 F         136.8292  138.1094  167.3307 F       1  UNL1       -0.2041
      9 C         138.5654  138.9629  165.5966 C.ar    1  UNL1        0.0590
     10 C         139.8070  139.7414  165.2765 C.ar    1  UNL1        0.1406
     11 F         140.3016  139.8164  163.8624 F       1  UNL1       -0.2044
     12 C         143.7026  142.8166  166.3387 C.3     1  UNL1        0.0097
     13 C         143.0372  142.0018  165.7309 C.3     1  UNL1        0.0770
     14 C         143.7075  141.8309  164.3999 C.ar    1  UNL1        0.0905
     15 N         143.0471  141.3770  163.1319 N.ar    1  UNL1       -0.2426
     16 C         144.0873  141.3495  162.0516 C.ar    1  UNL1        0.0880
     17 C         145.3907  141.7865  162.6519 C.ar    1  UNL1        0.0556
     18 S         145.1560  142.0840  164.1032 S.2     1  UNL1       -0.0702
     19 C         143.8635  140.9544  160.6219 C.ar    1  UNL1        0.0182
     20 C         143.3585  139.5807  160.2937 C.ar    1  UNL1        0.0022
     21 C         143.1348  139.1856  158.8641 C.ar    1  UNL1        0.0103
     22 C         143.4159  140.1644  157.7627 C.ar    1  UNL1        0.0684
     23 C         143.9208  141.5382  158.0909 C.ar    1  UNL1        0.0103
     24 C         144.1446  141.9332  159.5206 C.ar    1  UNL1        0.0022
     25 C         143.1921  139.7693  156.3330 C.1     1  UNL1        0.1004
     26 N         142.9682  139.3743  154.9034 N.1     1  UNL1       -0.1908
     27 C         141.0824  142.4992  166.3875 C.3     1  UNL1        0.1606
     28 N         140.3870  143.2767  165.3096 N.ar    1  UNL1       -0.2273
     29 C         138.9289  143.1979  164.9664 C.ar    1  UNL1        0.1973
     30 N         138.6684  144.1420  163.8303 N.ar    1  UNL1       -0.2007
     31 C         139.9655  144.8043  163.4713 C.ar    1  UNL1        0.2210
     32 N         141.0277  144.2696  164.3855 N.ar    1  UNL1       -0.1451
@<TRIPOS>BOND
     1    13    12    1
     2    13    14    1
     3    14    15   ar
     4    15    16   ar
     5    16    19    1
     6    19    20   ar
     7    20    21   ar
     8    21    22   ar
     9    22    25    1
    10    25    26    3
    11    22    23   ar
    12    23    24   ar
    13    16    17   ar
    14    17    18   ar
    15    13     1    1
    16     1     2    1
    17     1    27    1
    18    27    28    1
    19    28    29   ar
    20    29    30   ar
    21    30    31   ar
    22    31    32   ar
    23     1     4    1
    24     4     5   ar
    25     5     6   ar
    26     6     7   ar
    27     7     8    1
    28     7     9   ar
    29     9    10   ar
    30    10    11    1
    31    18    14   ar
    32    32    28   ar
    33    10     4   ar
    34    24    19   ar
    35     2     3    1
