@<TRIPOS>MOLECULE
*****
 31 35 0 0 0
SMALL
GASTEIGER

@<TRIPOS>ATOM
      1 N         138.5247  139.4336  164.1265 N.3     1  UNL1       -0.2725
      2 C         138.4913  138.3941  165.2074 C.3     1  UNL1        0.0738
      3 C         138.9387  138.7416  166.5963 C.3     1  UNL1        0.0376
      4 C         139.4195  140.1287  166.9044 C.3     1  UNL1        0.0842
      5 C         139.4528  141.1683  165.8234 C.3     1  UNL1        0.0376
      6 C         139.0054  140.8207  164.4346 C.3     1  UNL1        0.0738
      7 N         139.8669  140.4763  168.2932 N.am    1  UNL1       -0.2402
      8 C         139.1173  140.1859  169.5596 C.2     1  UNL1        0.3310
      9 O         137.7886  139.4969  169.6594 O.2     1  UNL1       -0.2501
     10 N         139.9295  140.7054  170.7086 N.am    1  UNL1       -0.1646
     11 C         141.1812  141.3169  170.1524 C.2     1  UNL1        0.0728
     12 C         142.3512  141.9844  170.8124 C.3     1  UNL1        0.0707
     13 C         143.4825  142.5103  169.9796 C.2     1  UNL1       -0.0176
     14 C         143.4438  142.3687  168.4867 C.2     1  UNL1        0.0268
     15 C         142.2738  141.7012  167.8267 C.2     1  UNL1        0.1544
     16 F         142.2350  141.5596  166.3340 F       1  UNL1       -0.2028
     17 C         141.1425  141.1753  168.6596 C.2     1  UNL1        0.0943
     18 C         138.0773  139.0860  162.7377 C.3     1  UNL1        0.0739
     19 C         139.0882  138.9342  161.6400 C.3     1  UNL1        0.0392
     20 C         140.2556  138.0093  161.8182 C.3     1  UNL1        0.0998
     21 O         141.4275  138.8590  159.1905 O.2     1  UNL1       -0.2705
     22 C         142.2405  138.9722  160.4460 C.2     1  UNL1        0.2739
     23 C         143.6394  139.5103  160.3877 C.3     1  UNL1        0.2900
     24 O         144.4524  139.6236  161.6431 O.3     1  UNL1       -0.4643
     25 C         143.8665  139.1987  162.9570 C.ar    1  UNL1        0.1528
     26 C         144.6795  139.3120  164.2124 C.ar    1  UNL1        0.0382
     27 C         144.0935  138.8871  165.5262 C.ar    1  UNL1        0.0032
     28 C         142.6946  138.3490  165.5846 C.ar    1  UNL1        0.0015
     29 C         141.8816  138.2358  164.3292 C.ar    1  UNL1        0.0180
     30 C         142.4675  138.6606  163.0154 C.ar    1  UNL1        0.0881
     31 N         141.6545  138.5474  161.7598 N.am    1  UNL1       -0.2529
@<TRIPOS>BOND
     1    21    22    2
     2    22    23    1
     3    23    24    1
     4    24    25    1
     5    25    26   ar
     6    26    27   ar
     7    27    28   ar
     8    28    29   ar
     9    29    30   ar
    10    30    31    1
    11    31    20    1
    12    20    19    1
    13    19    18    1
    14    18     1    1
    15     1     2    1
    16     2     3    1
    17     3     4    1
    18     4     7    1
    19     7     8   am
    20     8     9    2
    21     8    10    1
    22    10    11    2
    23    11    12    1
    24    12    13    1
    25    13    14    2
    26    14    15    1
    27    15    16    1
    28    15    17    2
    29     4     5    1
    30     5     6    1
    31    31    22   am
    32     6     1    1
    33    30    25   ar
    34    17     7    1
    35    17    11    1
@<TRIPOS>MOLECULE
*****
 31 35 0 0 0
SMALL
GASTEIGER

@<TRIPOS>ATOM
      1 N         140.5072  138.9525  163.0872 N.3     1  UNL1       -0.2725
      2 C         141.3504  140.1757  163.2932 C.3     1  UNL1        0.0738
      3 C         141.8201  140.5396  164.6706 C.3     1  UNL1        0.0376
      4 C         141.4465  139.6802  165.8418 C.3     1  UNL1        0.0842
      5 C         140.6032  138.4569  165.6357 C.3     1  UNL1        0.0376
      6 C         140.1335  138.0931  164.2585 C.3     1  UNL1        0.0738
      7 N         141.9162  140.0441  167.2191 N.am    1  UNL1       -0.2402
      8 C         142.9012  139.2733  168.0470 C.2     1  UNL1        0.3310
      9 O         143.5896  138.0033  167.6430 O.2     1  UNL1       -0.2501
     10 N         143.0771  139.9954  169.3499 N.am    1  UNL1       -0.1646
     11 C         142.2007  141.2126  169.3273 C.2     1  UNL1        0.0728
     12 C         141.9634  142.2974  170.3357 C.3     1  UNL1        0.0707
     13 C         141.0085  143.4123  170.0272 C.2     1  UNL1       -0.0176
     14 C         140.2910  143.4424  168.7102 C.2     1  UNL1        0.0268
     15 C         140.5284  142.3576  167.7018 C.2     1  UNL1        0.1544
     16 F         139.8109  142.3876  166.3849 F       1  UNL1       -0.2028
     17 C         141.4832  141.2427  168.0104 C.2     1  UNL1        0.0943
     18 C         140.0375  138.5886  161.7099 C.3     1  UNL1        0.0739
     19 C         138.6374  138.0922  161.5016 C.3     1  UNL1        0.0392
     20 C         137.5407  139.0595  161.1674 C.3     1  UNL1        0.0998
     21 O         138.1841  139.8034  158.3332 O.2     1  UNL1       -0.2705
     22 C         138.1953  140.8527  159.4051 C.2     1  UNL1        0.2739
     23 C         138.5282  142.2739  159.0598 C.3     1  UNL1        0.2900
     24 O         138.5395  143.3232  160.1316 O.3     1  UNL1       -0.4643
     25 C         138.2178  142.9513  161.5487 C.ar    1  UNL1        0.1528
     26 C         138.2290  144.0006  162.6205 C.ar    1  UNL1        0.0382
     27 C         137.9073  143.6287  164.0376 C.ar    1  UNL1        0.0032
     28 C         137.5744  142.2074  164.3829 C.ar    1  UNL1        0.0015
     29 C         137.5631  141.1581  163.3111 C.ar    1  UNL1        0.0180
     30 C         137.8848  141.5301  161.8940 C.ar    1  UNL1        0.0881
     31 N         137.8736  140.4808  160.8221 N.am    1  UNL1       -0.2529
@<TRIPOS>BOND
     1    21    22    2
     2    22    23    1
     3    23    24    1
     4    24    25    1
     5    25    26   ar
     6    26    27   ar
     7    27    28   ar
     8    28    29   ar
     9    29    30   ar
    10    30    31    1
    11    31    20    1
    12    20    19    1
    13    19    18    1
    14    18     1    1
    15     1     2    1
    16     2     3    1
    17     3     4    1
    18     4     7    1
    19     7     8   am
    20     8     9    2
    21     8    10    1
    22    10    11    2
    23    11    12    1
    24    12    13    1
    25    13    14    2
    26    14    15    1
    27    15    16    1
    28    15    17    2
    29     4     5    1
    30     5     6    1
    31    31    22   am
    32     6     1    1
    33    30    25   ar
    34    17     7    1
    35    17    11    1
@<TRIPOS>MOLECULE
*****
 31 35 0 0 0
SMALL
GASTEIGER

@<TRIPOS>ATOM
      1 N         140.9824  138.7319  162.5641 N.3     1  UNL1       -0.2725
      2 C         140.8345  137.5824  163.5163 C.3     1  UNL1        0.0738
      3 C         140.4699  137.8373  164.9488 C.3     1  UNL1        0.0376
      4 C         140.2532  139.2417  165.4291 C.3     1  UNL1        0.0842
      5 C         140.4011  140.3912  164.4768 C.3     1  UNL1        0.0376
      6 C         140.7657  140.1363  163.0444 C.3     1  UNL1        0.0738
      7 N         139.8886  139.4966  166.8616 N.am    1  UNL1       -0.2402
      8 C         138.5472  139.2521  167.4869 C.2     1  UNL1        0.3310
      9 O         137.3350  138.7098  166.7895 O.2     1  UNL1       -0.2501
     10 N         138.6309  139.6451  168.9321 N.am    1  UNL1       -0.1646
     11 C         140.0240  140.1325  169.2000 C.2     1  UNL1        0.0728
     12 C         140.6851  140.6480  170.4438 C.3     1  UNL1        0.0707
     13 C         142.1236  141.0718  170.4080 C.2     1  UNL1       -0.0176
     14 C         142.9009  140.9800  169.1283 C.2     1  UNL1        0.0268
     15 C         142.2397  140.4644  167.8845 C.2     1  UNL1        0.1544
     16 F         143.0170  140.3726  166.6049 F       1  UNL1       -0.2028
     17 C         140.8013  140.0407  167.9203 C.2     1  UNL1        0.0943
     18 C         141.3470  138.4770  161.1316 C.3     1  UNL1        0.0739
     19 C         142.5432  137.6346  160.8006 C.3     1  UNL1        0.0392
     20 C         143.9070  138.2568  160.7471 C.3     1  UNL1        0.0998
     21 O         143.6043  139.4091  157.9938 O.2     1  UNL1       -0.2705
     22 C         143.8980  140.3107  159.1561 C.2     1  UNL1        0.2739
     23 C         144.0403  141.7885  158.9418 C.3     1  UNL1        0.2900
     24 O         144.3340  142.6901  160.1040 O.3     1  UNL1       -0.4643
     25 C         144.4854  142.1139  161.4807 C.ar    1  UNL1        0.1528
     26 C         144.7791  143.0155  162.6429 C.ar    1  UNL1        0.0382
     27 C         144.9305  142.4393  164.0195 C.ar    1  UNL1        0.0032
     28 C         144.7881  140.9616  164.2339 C.ar    1  UNL1        0.0015
     29 C         144.4945  140.0600  163.0717 C.ar    1  UNL1        0.0180
     30 C         144.3431  140.6361  161.6951 C.ar    1  UNL1        0.0881
     31 N         144.0494  139.7345  160.5327 N.am    1  UNL1       -0.2529
@<TRIPOS>BOND
     1    21    22    2
     2    22    23    1
     3    23    24    1
     4    24    25    1
     5    25    26   ar
     6    26    27   ar
     7    27    28   ar
     8    28    29   ar
     9    29    30   ar
    10    30    31    1
    11    31    20    1
    12    20    19    1
    13    19    18    1
    14    18     1    1
    15     1     2    1
    16     2     3    1
    17     3     4    1
    18     4     7    1
    19     7     8   am
    20     8     9    2
    21     8    10    1
    22    10    11    2
    23    11    12    1
    24    12    13    1
    25    13    14    2
    26    14    15    1
    27    15    16    1
    28    15    17    2
    29     4     5    1
    30     5     6    1
    31    31    22   am
    32     6     1    1
    33    30    25   ar
    34    17     7    1
    35    17    11    1
@<TRIPOS>MOLECULE
*****
 31 35 0 0 0
SMALL
GASTEIGER

@<TRIPOS>ATOM
      1 N         141.3248  140.0946  162.8803 N.3     1  UNL1       -0.2725
      2 C         140.2342  139.7367  163.8459 C.3     1  UNL1        0.0738
      3 C         140.4941  139.7848  165.3225 C.3     1  UNL1        0.0376
      4 C         141.8448  140.1907  165.8333 C.3     1  UNL1        0.0842
      5 C         142.9354  140.5486  164.8676 C.3     1  UNL1        0.0376
      6 C         142.6754  140.5005  163.3912 C.3     1  UNL1        0.0738
      7 N         142.1048  140.2388  167.3098 N.am    1  UNL1       -0.2402
      8 C         142.9323  139.2620  168.0916 C.2     1  UNL1        0.3310
      9 O         143.6450  138.0656  167.5341 O.2     1  UNL1       -0.2501
     10 N         142.9219  139.6915  169.5287 N.am    1  UNL1       -0.1646
     11 C         142.0880  140.9339  169.6352 C.2     1  UNL1        0.0728
     12 C         141.7233  141.8008  170.8036 C.3     1  UNL1        0.0707
     13 C         140.8535  143.0060  170.6008 C.2     1  UNL1       -0.0176
     14 C         140.3485  143.3442  169.2294 C.2     1  UNL1        0.0268
     15 C         140.7133  142.4772  168.0609 C.2     1  UNL1        0.1544
     16 F         140.2083  142.8153  166.6896 F       1  UNL1       -0.2028
     17 C         141.5830  141.2720  168.2638 C.2     1  UNL1        0.0943
     18 C         141.0648  140.0465  161.4038 C.3     1  UNL1        0.0739
     19 C         141.6463  141.0974  160.5052 C.3     1  UNL1        0.0392
     20 C         141.0713  142.4829  160.5015 C.3     1  UNL1        0.0998
     21 O         143.7498  143.7296  161.0225 O.2     1  UNL1       -0.2705
     22 C         142.6028  144.0013  161.9502 C.2     1  UNL1        0.2739
     23 C         142.7951  144.8963  163.1385 C.3     1  UNL1        0.2900
     24 O         141.6482  145.1680  164.0662 O.3     1  UNL1       -0.4643
     25 C         140.3089  144.5446  163.8057 C.ar    1  UNL1        0.1528
     26 C         139.1620  144.8163  164.7334 C.ar    1  UNL1        0.0382
     27 C         137.8228  144.1930  164.4729 C.ar    1  UNL1        0.0032
     28 C         137.6305  143.2979  163.2847 C.ar    1  UNL1        0.0015
     29 C         138.7774  143.0263  162.3569 C.ar    1  UNL1        0.0180
     30 C         140.1166  143.6496  162.6175 C.ar    1  UNL1        0.0881
     31 N         141.2636  143.3779  161.6897 N.am    1  UNL1       -0.2529
@<TRIPOS>BOND
     1    21    22    2
     2    22    23    1
     3    23    24    1
     4    24    25    1
     5    25    26   ar
     6    26    27   ar
     7    27    28   ar
     8    28    29   ar
     9    29    30   ar
    10    30    31    1
    11    31    20    1
    12    20    19    1
    13    19    18    1
    14    18     1    1
    15     1     2    1
    16     2     3    1
    17     3     4    1
    18     4     7    1
    19     7     8   am
    20     8     9    2
    21     8    10    1
    22    10    11    2
    23    11    12    1
    24    12    13    1
    25    13    14    2
    26    14    15    1
    27    15    16    1
    28    15    17    2
    29     4     5    1
    30     5     6    1
    31    31    22   am
    32     6     1    1
    33    30    25   ar
    34    17     7    1
    35    17    11    1
@<TRIPOS>MOLECULE
*****
 31 35 0 0 0
SMALL
GASTEIGER

@<TRIPOS>ATOM
      1 N         142.6389  142.2633  163.1216 N.3     1  UNL1       -0.2725
      2 C         142.6541  140.8008  163.4543 C.3     1  UNL1        0.0738
      3 C         142.0114  140.3125  164.7187 C.3     1  UNL1        0.0376
      4 C         141.3536  141.2869  165.6503 C.3     1  UNL1        0.0842
      5 C         141.3384  142.7495  165.3175 C.3     1  UNL1        0.0376
      6 C         141.9811  143.2376  164.0532 C.3     1  UNL1        0.0738
      7 N         140.7109  140.7987  166.9147 N.am    1  UNL1       -0.2402
      8 C         139.4543  139.9848  167.0076 C.2     1  UNL1        0.3310
      9 O         138.6199  139.5161  165.8526 O.2     1  UNL1       -0.2501
     10 N         139.1787  139.7218  168.4584 N.am    1  UNL1       -0.1646
     11 C         140.2650  140.3732  169.2622 C.2     1  UNL1        0.0728
     12 C         140.5141  140.4462  170.7395 C.3     1  UNL1        0.0707
     13 C         141.7102  141.1848  171.2628 C.2     1  UNL1       -0.0176
     14 C         142.6571  141.8505  170.3086 C.2     1  UNL1        0.0268
     15 C         142.4079  141.7774  168.8312 C.2     1  UNL1        0.1544
     16 F         143.3548  142.4429  167.8771 F       1  UNL1       -0.2028
     17 C         141.2118  141.0387  168.3080 C.2     1  UNL1        0.0943
     18 C         143.2816  142.7514  161.8572 C.3     1  UNL1        0.0739
     19 C         142.8524  142.1921  160.5333 C.3     1  UNL1        0.0392
     20 C         141.5043  142.5388  159.9742 C.3     1  UNL1        0.0998
     21 O         141.8758  145.4778  159.5007 O.2     1  UNL1       -0.2705
     22 C         140.8157  144.9988  160.4477 C.2     1  UNL1        0.2739
     23 C         139.9413  145.9892  161.1579 C.3     1  UNL1        0.2900
     24 O         138.8812  145.5103  162.1049 O.3     1  UNL1       -0.4643
     25 C         138.6954  144.0407  162.3416 C.ar    1  UNL1        0.1528
     26 C         137.6353  143.5617  163.2885 C.ar    1  UNL1        0.0382
     27 C         137.4496  142.0922  163.5252 C.ar    1  UNL1        0.0032
     28 C         138.3239  141.1017  162.8150 C.ar    1  UNL1        0.0015
     29 C         139.3840  141.5807  161.8680 C.ar    1  UNL1        0.0180
     30 C         139.5698  143.0502  161.6314 C.ar    1  UNL1        0.0881
     31 N         140.6299  143.5293  160.6844 N.am    1  UNL1       -0.2529
@<TRIPOS>BOND
     1    21    22    2
     2    22    23    1
     3    23    24    1
     4    24    25    1
     5    25    26   ar
     6    26    27   ar
     7    27    28   ar
     8    28    29   ar
     9    29    30   ar
    10    30    31    1
    11    31    20    1
    12    20    19    1
    13    19    18    1
    14    18     1    1
    15     1     2    1
    16     2     3    1
    17     3     4    1
    18     4     7    1
    19     7     8   am
    20     8     9    2
    21     8    10    1
    22    10    11    2
    23    11    12    1
    24    12    13    1
    25    13    14    2
    26    14    15    1
    27    15    16    1
    28    15    17    2
    29     4     5    1
    30     5     6    1
    31    31    22   am
    32     6     1    1
    33    30    25   ar
    34    17     7    1
    35    17    11    1
@<TRIPOS>MOLECULE
*****
 31 35 0 0 0
SMALL
GASTEIGER

@<TRIPOS>ATOM
      1 N         139.6656  139.9584  162.9427 N.3     1  UNL1       -0.2725
      2 C         138.4652  140.5579  163.6131 C.3     1  UNL1        0.0738
      3 C         138.4061  140.6426  165.1096 C.3     1  UNL1        0.0376
      4 C         139.5475  140.1278  165.9356 C.3     1  UNL1        0.0842
      5 C         140.7480  139.5283  165.2650 C.3     1  UNL1        0.0376
      6 C         140.8070  139.4436  163.7686 C.3     1  UNL1        0.0738
      7 N         139.4884  140.2125  167.4320 N.am    1  UNL1       -0.2402
      8 C         138.5365  139.4677  168.3203 C.2     1  UNL1        0.3310
      9 O         137.4764  138.5076  167.8682 O.2     1  UNL1       -0.2501
     10 N         138.8306  139.8517  169.7402 N.am    1  UNL1       -0.1646
     11 C         139.9645  140.8338  169.7294 C.2     1  UNL1        0.0728
     12 C         140.6791  141.5538  170.8342 C.3     1  UNL1        0.0707
     13 C         141.8005  142.4968  170.5126 C.2     1  UNL1       -0.0176
     14 C         142.2070  142.7198  169.0859 C.2     1  UNL1        0.0268
     15 C         141.4922  141.9997  167.9811 C.2     1  UNL1        0.1544
     16 F         141.8987  142.2226  166.5546 F       1  UNL1       -0.2028
     17 C         140.3710  141.0567  168.3028 C.2     1  UNL1        0.0943
     18 C         139.7247  139.8737  161.4463 C.3     1  UNL1        0.0739
     19 C         140.7725  140.6379  160.6926 C.3     1  UNL1        0.0392
     20 C         140.5294  142.0686  160.3126 C.3     1  UNL1        0.0998
     21 O         137.7270  142.8733  161.0190 O.2     1  UNL1       -0.2705
     22 C         138.8893  143.4997  161.7310 C.2     1  UNL1        0.2739
     23 C         138.6503  144.5284  162.7962 C.3     1  UNL1        0.2900
     24 O         139.8125  145.1547  163.5082 O.3     1  UNL1       -0.4643
     25 C         141.2138  144.7523  163.1549 C.ar    1  UNL1        0.1528
     26 C         142.3760  145.3786  163.8669 C.ar    1  UNL1        0.0382
     27 C         143.7771  144.9762  163.5137 C.ar    1  UNL1        0.0032
     28 C         144.0161  143.9475  162.4485 C.ar    1  UNL1        0.0015
     29 C         142.8539  143.3212  161.7365 C.ar    1  UNL1        0.0180
     30 C         141.4527  143.7236  162.0897 C.ar    1  UNL1        0.0881
     31 N         140.2904  143.0973  161.3778 N.am    1  UNL1       -0.2529
@<TRIPOS>BOND
     1    21    22    2
     2    22    23    1
     3    23    24    1
     4    24    25    1
     5    25    26   ar
     6    26    27   ar
     7    27    28   ar
     8    28    29   ar
     9    29    30   ar
    10    30    31    1
    11    31    20    1
    12    20    19    1
    13    19    18    1
    14    18     1    1
    15     1     2    1
    16     2     3    1
    17     3     4    1
    18     4     7    1
    19     7     8   am
    20     8     9    2
    21     8    10    1
    22    10    11    2
    23    11    12    1
    24    12    13    1
    25    13    14    2
    26    14    15    1
    27    15    16    1
    28    15    17    2
    29     4     5    1
    30     5     6    1
    31    31    22   am
    32     6     1    1
    33    30    25   ar
    34    17     7    1
    35    17    11    1
@<TRIPOS>MOLECULE
*****
 31 35 0 0 0
SMALL
GASTEIGER

@<TRIPOS>ATOM
      1 N         141.5435  139.9925  162.5965 N.3     1  UNL1       -0.2725
      2 C         142.8918  140.3442  163.1518 C.3     1  UNL1        0.0738
      3 C         143.0943  140.4233  164.6360 C.3     1  UNL1        0.0376
      4 C         141.9485  140.1505  165.5648 C.3     1  UNL1        0.0842
      5 C         140.6002  139.7988  165.0094 C.3     1  UNL1        0.0376
      6 C         140.3977  139.7197  163.5253 C.3     1  UNL1        0.0738
      7 N         142.1509  140.2295  167.0490 N.am    1  UNL1       -0.2402
      8 C         142.9499  139.2717  167.8820 C.2     1  UNL1        0.3310
      9 O         143.6868  138.0666  167.3772 O.2     1  UNL1       -0.2501
     10 N         142.8827  139.7304  169.3086 N.am    1  UNL1       -0.1646
     11 C         142.0421  140.9718  169.3572 C.2     1  UNL1        0.0728
     12 C         141.6302  141.8611  170.4927 C.3     1  UNL1        0.0707
     13 C         140.7658  143.0590  170.2316 C.2     1  UNL1       -0.0176
     14 C         140.3135  143.3675  168.8350 C.2     1  UNL1        0.0268
     15 C         140.7256  142.4781  167.6996 C.2     1  UNL1        0.1544
     16 F         140.2733  142.7866  166.3031 F       1  UNL1       -0.2028
     17 C         141.5899  141.2803  167.9607 C.2     1  UNL1        0.0943
     18 C         141.3411  139.9135  161.1123 C.3     1  UNL1        0.0739
     19 C         140.2711  140.7350  160.4565 C.3     1  UNL1        0.0392
     20 C         140.4624  142.2123  160.2795 C.3     1  UNL1        0.0998
     21 O         137.6892  142.8618  161.2216 O.2     1  UNL1       -0.2705
     22 C         138.8765  143.4637  161.9131 C.2     1  UNL1        0.2739
     23 C         138.6771  144.3904  163.0757 C.3     1  UNL1        0.2900
     24 O         139.8643  144.9922  163.7672 O.3     1  UNL1       -0.4643
     25 C         141.2510  144.6675  163.2962 C.ar    1  UNL1        0.1528
     26 C         142.4382  145.2694  163.9877 C.ar    1  UNL1        0.0382
     27 C         143.8247  144.9446  163.5167 C.ar    1  UNL1        0.0032
     28 C         144.0241  144.0180  162.3541 C.ar    1  UNL1        0.0015
     29 C         142.8369  143.4161  161.6626 C.ar    1  UNL1        0.0180
     30 C         141.4503  143.7408  162.1336 C.ar    1  UNL1        0.0881
     31 N         140.2630  143.1389  161.4421 N.am    1  UNL1       -0.2529
@<TRIPOS>BOND
     1    21    22    2
     2    22    23    1
     3    23    24    1
     4    24    25    1
     5    25    26   ar
     6    26    27   ar
     7    27    28   ar
     8    28    29   ar
     9    29    30   ar
    10    30    31    1
    11    31    20    1
    12    20    19    1
    13    19    18    1
    14    18     1    1
    15     1     2    1
    16     2     3    1
    17     3     4    1
    18     4     7    1
    19     7     8   am
    20     8     9    2
    21     8    10    1
    22    10    11    2
    23    11    12    1
    24    12    13    1
    25    13    14    2
    26    14    15    1
    27    15    16    1
    28    15    17    2
    29     4     5    1
    30     5     6    1
    31    31    22   am
    32     6     1    1
    33    30    25   ar
    34    17     7    1
    35    17    11    1
@<TRIPOS>MOLECULE
*****
 31 35 0 0 0
SMALL
GASTEIGER

@<TRIPOS>ATOM
      1 N         142.8536  141.7316  162.8082 N.3     1  UNL1       -0.2725
      2 C         143.5264  142.5087  163.9007 C.3     1  UNL1        0.0738
      3 C         143.3863  142.0706  165.3284 C.3     1  UNL1        0.0376
      4 C         142.5735  140.8553  165.6637 C.3     1  UNL1        0.0842
      5 C         141.9007  140.0782  164.5712 C.3     1  UNL1        0.0376
      6 C         142.0408  140.5163  163.1435 C.3     1  UNL1        0.0738
      7 N         142.4334  140.4171  167.0914 N.am    1  UNL1       -0.2402
      8 C         143.0169  139.1732  167.6931 C.2     1  UNL1        0.3310
      9 O         143.8429  138.1490  166.9729 O.2     1  UNL1       -0.2501
     10 N         142.6294  139.1332  169.1417 N.am    1  UNL1       -0.1646
     11 C         141.8064  140.3525  169.4352 C.2     1  UNL1        0.0728
     12 C         141.1516  140.8426  170.6925 C.3     1  UNL1        0.0707
     13 C         140.3757  142.1263  170.6828 C.2     1  UNL1       -0.0176
     14 C         140.2546  142.9199  169.4156 C.2     1  UNL1        0.0268
     15 C         140.9094  142.4296  168.1582 C.2     1  UNL1        0.1544
     16 F         140.7883  143.2231  166.8911 F       1  UNL1       -0.2028
     17 C         141.6853  141.1459  168.1680 C.2     1  UNL1        0.0943
     18 C         142.9937  142.1698  161.3805 C.3     1  UNL1        0.0739
     19 C         141.9483  141.7910  160.3737 C.3     1  UNL1        0.0392
     20 C         140.6690  142.5698  160.2916 C.3     1  UNL1        0.0998
     21 O         138.9898  140.2168  159.4892 O.2     1  UNL1       -0.2705
     22 C         138.6518  140.9918  160.7283 C.2     1  UNL1        0.2739
     23 C         137.4742  140.5902  161.5661 C.3     1  UNL1        0.2900
     24 O         137.1362  141.3650  162.8052 O.3     1  UNL1       -0.4643
     25 C         137.9757  142.5416  163.2064 C.ar    1  UNL1        0.1528
     26 C         137.6377  143.3165  164.4454 C.ar    1  UNL1        0.0382
     27 C         138.4772  144.4930  164.8466 C.ar    1  UNL1        0.0032
     28 C         139.6548  144.8946  164.0088 C.ar    1  UNL1        0.0015
     29 C         139.9929  144.1197  162.7698 C.ar    1  UNL1        0.0180
     30 C         139.1533  142.9432  162.3686 C.ar    1  UNL1        0.0881
     31 N         139.4914  142.1682  161.1295 N.am    1  UNL1       -0.2529
@<TRIPOS>BOND
     1    21    22    2
     2    22    23    1
     3    23    24    1
     4    24    25    1
     5    25    26   ar
     6    26    27   ar
     7    27    28   ar
     8    28    29   ar
     9    29    30   ar
    10    30    31    1
    11    31    20    1
    12    20    19    1
    13    19    18    1
    14    18     1    1
    15     1     2    1
    16     2     3    1
    17     3     4    1
    18     4     7    1
    19     7     8   am
    20     8     9    2
    21     8    10    1
    22    10    11    2
    23    11    12    1
    24    12    13    1
    25    13    14    2
    26    14    15    1
    27    15    16    1
    28    15    17    2
    29     4     5    1
    30     5     6    1
    31    31    22   am
    32     6     1    1
    33    30    25   ar
    34    17     7    1
    35    17    11    1
@<TRIPOS>MOLECULE
*****
 31 35 0 0 0
SMALL
GASTEIGER

@<TRIPOS>ATOM
      1 N         141.7120  140.0677  162.6064 N.3     1  UNL1       -0.2725
      2 C         140.6193  140.9948  163.0494 C.3     1  UNL1        0.0738
      3 C         140.1336  140.9579  164.4681 C.3     1  UNL1        0.0376
      4 C         140.7408  139.9939  165.4438 C.3     1  UNL1        0.0842
      5 C         141.8336  139.0668  165.0008 C.3     1  UNL1        0.0376
      6 C         142.3192  139.1037  163.5821 C.3     1  UNL1        0.0738
      7 N         140.2552  139.9570  166.8625 N.am    1  UNL1       -0.2402
      8 C         138.9129  139.4705  167.3226 C.2     1  UNL1        0.3310
      9 O         137.8206  138.9356  166.4447 O.2     1  UNL1       -0.2501
     10 N         138.8547  139.6129  168.8147 N.am    1  UNL1       -0.1646
     11 C         140.1610  140.1873  169.2768 C.2     1  UNL1        0.0728
     12 C         140.6741  140.5442  170.6403 C.3     1  UNL1        0.0707
     13 C         142.0529  141.1138  170.7975 C.2     1  UNL1       -0.0176
     14 C         142.9185  141.3264  169.5909 C.2     1  UNL1        0.0268
     15 C         142.4053  140.9695  168.2274 C.2     1  UNL1        0.1544
     16 F         143.2708  141.1821  167.0209 F       1  UNL1       -0.2028
     17 C         141.0266  140.4000  168.0703 C.2     1  UNL1        0.0943
     18 C         142.1977  140.1047  161.1877 C.3     1  UNL1        0.0739
     19 C         143.6455  140.3678  160.8971 C.3     1  UNL1        0.0392
     20 C         144.1836  141.7660  160.9730 C.3     1  UNL1        0.0998
     21 O         146.0247  141.3021  163.2958 O.2     1  UNL1       -0.2705
     22 C         144.9399  142.3336  163.3929 C.2     1  UNL1        0.2739
     23 C         144.7757  143.1331  164.6514 C.3     1  UNL1        0.2900
     24 O         143.6910  144.1646  164.7485 O.3     1  UNL1       -0.4643
     25 C         142.7705  144.3966  163.5871 C.ar    1  UNL1        0.1528
     26 C         141.6858  145.4280  163.6842 C.ar    1  UNL1        0.0382
     27 C         140.7653  145.6599  162.5228 C.ar    1  UNL1        0.0032
     28 C         140.9295  144.8604  161.2643 C.ar    1  UNL1        0.0015
     29 C         142.0142  143.8290  161.1672 C.ar    1  UNL1        0.0180
     30 C         142.9347  143.5970  162.3286 C.ar    1  UNL1        0.0881
     31 N         144.0194  142.5655  162.2315 N.am    1  UNL1       -0.2529
@<TRIPOS>BOND
     1    21    22    2
     2    22    23    1
     3    23    24    1
     4    24    25    1
     5    25    26   ar
     6    26    27   ar
     7    27    28   ar
     8    28    29   ar
     9    29    30   ar
    10    30    31    1
    11    31    20    1
    12    20    19    1
    13    19    18    1
    14    18     1    1
    15     1     2    1
    16     2     3    1
    17     3     4    1
    18     4     7    1
    19     7     8   am
    20     8     9    2
    21     8    10    1
    22    10    11    2
    23    11    12    1
    24    12    13    1
    25    13    14    2
    26    14    15    1
    27    15    16    1
    28    15    17    2
    29     4     5    1
    30     5     6    1
    31    31    22   am
    32     6     1    1
    33    30    25   ar
    34    17     7    1
    35    17    11    1
