@<TRIPOS>MOLECULE
*****
 20 22 0 0 0
SMALL
GASTEIGER

@<TRIPOS>ATOM
      1 N         140.7565  138.5181  161.9324 N.3     1  UNL1       -0.2711
      2 C         141.5526  139.2946  162.9390 C.3     1  UNL1        0.0939
      3 C         141.0205  139.4883  164.3280 C.3     1  UNL1        0.1123
      4 N         139.6923  138.9055  164.7105 N.am    1  UNL1       -0.2612
      5 C         139.1603  139.0992  166.0995 C.2     1  UNL1        0.3077
      6 O         137.8321  138.5164  166.4819 O.2     1  UNL1       -0.2523
      7 N         139.9564  139.8758  167.1060 N.am    1  UNL1       -0.2558
      8 C         139.5555  140.1505  168.5251 C.3     1  UNL1        0.1217
      9 C         140.6445  140.9585  169.1664 C.ar    1  UNL1       -0.0046
     10 C         140.7969  141.5186  170.5495 C.ar    1  UNL1       -0.0029
     11 C         142.0233  142.3034  170.9098 C.ar    1  UNL1       -0.0003
     12 C         143.0974  142.5281  169.8870 C.ar    1  UNL1       -0.0003
     13 C         142.9449  141.9679  168.5040 C.ar    1  UNL1       -0.0029
     14 C         141.7185  141.1831  168.1436 C.ar    1  UNL1       -0.0046
     15 C         141.2932  140.5140  166.8703 C.3     1  UNL1        0.1217
     16 C         138.8962  138.1290  163.7039 C.3     1  UNL1        0.1123
     17 C         139.4283  137.9353  162.3148 C.3     1  UNL1        0.0939
     18 C         142.6800  137.8026  160.3392 C.3     1  UNL1        0.0173
     19 C         141.2886  138.3244  160.5434 C.3     1  UNL1        0.0577
     20 C         140.4292  138.6524  159.3585 C.3     1  UNL1        0.0173
@<TRIPOS>BOND
     1    18    19    1
     2    19    20    1
     3    19     1    1
     4     1     2    1
     5     2     3    1
     6     3     4    1
     7     4     5   am
     8     5     6    2
     9     5     7   am
    10     7     8    1
    11     8     9    1
    12     9    10   ar
    13    10    11   ar
    14    11    12   ar
    15    12    13   ar
    16    13    14   ar
    17    14    15    1
    18     4    16    1
    19    16    17    1
    20    17     1    1
    21    15     7    1
    22    14     9   ar
@<TRIPOS>MOLECULE
*****
 20 22 0 0 0
SMALL
GASTEIGER

@<TRIPOS>ATOM
      1 N         139.7107  144.0200  162.1766 N.3     1  UNL1       -0.2711
      2 C         140.3221  144.1660  163.5386 C.3     1  UNL1        0.0939
      3 C         140.0858  143.1159  164.5832 C.3     1  UNL1        0.1123
      4 N         139.2382  141.9196  164.2659 N.am    1  UNL1       -0.2612
      5 C         139.0020  140.8695  165.3106 C.2     1  UNL1        0.3077
      6 O         138.1544  139.6733  164.9932 O.2     1  UNL1       -0.2523
      7 N         139.6133  141.0155  166.6725 N.am    1  UNL1       -0.2558
      8 C         139.4664  140.0521  167.8128 C.3     1  UNL1        0.1217
      9 C         140.2412  140.5917  168.9784 C.ar    1  UNL1       -0.0046
     10 C         140.4578  140.0697  170.3678 C.ar    1  UNL1       -0.0029
     11 C         141.3001  140.8446  171.3373 C.ar    1  UNL1       -0.0003
     12 C         141.9259  142.1415  170.9173 C.ar    1  UNL1       -0.0003
     13 C         141.7093  142.6636  169.5279 C.ar    1  UNL1       -0.0029
     14 C         140.8670  141.8886  168.5584 C.ar    1  UNL1       -0.0046
     15 C         140.4789  142.1505  167.1333 C.3     1  UNL1        0.1217
     16 C         138.6268  141.7736  162.9040 C.3     1  UNL1        0.1123
     17 C         138.8631  142.8239  161.8593 C.3     1  UNL1        0.0939
     18 C         139.6210  146.5050  161.4237 C.3     1  UNL1        0.0173
     19 C         139.9470  145.0703  161.1319 C.3     1  UNL1        0.0577
     20 C         140.5092  144.6857  159.7956 C.3     1  UNL1        0.0173
@<TRIPOS>BOND
     1    18    19    1
     2    19    20    1
     3    19     1    1
     4     1     2    1
     5     2     3    1
     6     3     4    1
     7     4     5   am
     8     5     6    2
     9     5     7   am
    10     7     8    1
    11     8     9    1
    12     9    10   ar
    13    10    11   ar
    14    11    12   ar
    15    12    13   ar
    16    13    14   ar
    17    14    15    1
    18     4    16    1
    19    16    17    1
    20    17     1    1
    21    15     7    1
    22    14     9   ar
@<TRIPOS>MOLECULE
*****
 20 22 0 0 0
SMALL
GASTEIGER

@<TRIPOS>ATOM
      1 N         140.6505  142.0678  168.6819 N.3     1  UNL1       -0.2711
      2 C         140.9439  142.1696  167.2144 C.3     1  UNL1        0.0939
      3 C         140.3759  141.1575  166.2640 C.3     1  UNL1        0.1123
      4 N         139.5146  140.0436  166.7812 N.am    1  UNL1       -0.2612
      5 C         138.9467  139.0315  165.8309 C.2     1  UNL1        0.3077
      6 O         138.0854  137.9177  166.3481 O.2     1  UNL1       -0.2523
      7 N         139.2400  139.1333  164.3634 N.am    1  UNL1       -0.2558
      8 C         138.7449  138.2002  163.2985 C.3     1  UNL1        0.1217
      9 C         139.2788  138.6763  161.9800 C.ar    1  UNL1       -0.0046
     10 C         139.1203  138.1507  160.5841 C.ar    1  UNL1       -0.0029
     11 C         139.7869  138.8526  159.4383 C.ar    1  UNL1       -0.0003
     12 C         140.6120  140.0800  159.6884 C.ar    1  UNL1       -0.0003
     13 C         140.7706  140.6056  161.0843 C.ar    1  UNL1       -0.0029
     14 C         140.1040  139.9037  162.2301 C.ar    1  UNL1       -0.0046
     15 C         140.0800  140.1862  163.7031 C.3     1  UNL1        0.1217
     16 C         139.2213  139.9418  168.2487 C.3     1  UNL1        0.1123
     17 C         139.7893  140.9539  169.1991 C.3     1  UNL1        0.0939
     18 C         142.6135  142.9148  170.1582 C.3     1  UNL1        0.0173
     19 C         141.2185  143.0799  169.6322 C.3     1  UNL1        0.0577
     20 C         140.3914  144.2571  170.0566 C.3     1  UNL1        0.0173
@<TRIPOS>BOND
     1    18    19    1
     2    19    20    1
     3    19     1    1
     4     1     2    1
     5     2     3    1
     6     3     4    1
     7     4     5   am
     8     5     6    2
     9     5     7   am
    10     7     8    1
    11     8     9    1
    12     9    10   ar
    13    10    11   ar
    14    11    12   ar
    15    12    13   ar
    16    13    14   ar
    17    14    15    1
    18     4    16    1
    19    16    17    1
    20    17     1    1
    21    15     7    1
    22    14     9   ar
@<TRIPOS>MOLECULE
*****
 20 22 0 0 0
SMALL
GASTEIGER

@<TRIPOS>ATOM
      1 N         141.4346  144.3129  159.1997 N.3     1  UNL1       -0.2711
      2 C         141.3110  142.9250  159.7551 C.3     1  UNL1        0.0939
      3 C         140.5745  142.6947  161.0413 C.3     1  UNL1        0.1123
      4 N         139.9615  143.8523  161.7722 N.am    1  UNL1       -0.2612
      5 C         139.2249  143.6220  163.0584 C.2     1  UNL1        0.3077
      6 O         138.6120  144.7796  163.7893 O.2     1  UNL1       -0.2523
      7 N         139.1013  142.2341  163.6138 N.am    1  UNL1       -0.2558
      8 C         138.3983  141.8514  164.8824 C.3     1  UNL1        0.1217
      9 C         138.5215  140.3660  165.0507 C.ar    1  UNL1       -0.0046
     10 C         138.0248  139.4318  166.1139 C.ar    1  UNL1       -0.0029
     11 C         138.3073  137.9621  166.0125 C.ar    1  UNL1       -0.0003
     12 C         139.0865  137.4267  164.8479 C.ar    1  UNL1       -0.0003
     13 C         139.5831  138.3610  163.7847 C.ar    1  UNL1       -0.0029
     14 C         139.3006  139.8306  163.8861 C.ar    1  UNL1       -0.0046
     15 C         139.6589  140.9852  162.9981 C.3     1  UNL1        0.1217
     16 C         140.0851  145.2403  161.2169 C.3     1  UNL1        0.1123
     17 C         140.8217  145.4705  159.9306 C.3     1  UNL1        0.0939
     18 C         142.1452  145.8960  157.2660 C.3     1  UNL1        0.0173
     19 C         142.1712  144.5432  157.9134 C.3     1  UNL1        0.0577
     20 C         142.9339  143.4206  157.2746 C.3     1  UNL1        0.0173
@<TRIPOS>BOND
     1    18    19    1
     2    19    20    1
     3    19     1    1
     4     1     2    1
     5     2     3    1
     6     3     4    1
     7     4     5   am
     8     5     6    2
     9     5     7   am
    10     7     8    1
    11     8     9    1
    12     9    10   ar
    13    10    11   ar
    14    11    12   ar
    15    12    13   ar
    16    13    14   ar
    17    14    15    1
    18     4    16    1
    19    16    17    1
    20    17     1    1
    21    15     7    1
    22    14     9   ar
@<TRIPOS>MOLECULE
*****
 20 22 0 0 0
SMALL
GASTEIGER

@<TRIPOS>ATOM
      1 N         141.0134  144.7846  160.1480 N.3     1  UNL1       -0.2711
      2 C         141.6284  143.6560  160.9215 C.3     1  UNL1        0.0939
      3 C         141.2806  143.4608  162.3675 C.3     1  UNL1        0.1123
      4 N         140.3179  144.3941  163.0400 N.am    1  UNL1       -0.2612
      5 C         139.9702  144.1988  164.4860 C.2     1  UNL1        0.3077
      6 O         139.0076  145.1321  165.1585 O.2     1  UNL1       -0.2523
      7 N         140.5852  143.0703  165.2595 N.am    1  UNL1       -0.2558
      8 C         140.3346  142.7517  166.7037 C.3     1  UNL1        0.1217
      9 C         141.1532  141.5467  167.0614 C.ar    1  UNL1       -0.0046
     10 C         141.3075  140.7825  168.3428 C.ar    1  UNL1       -0.0029
     11 C         142.2183  139.5922  168.4011 C.ar    1  UNL1       -0.0003
     12 C         142.9749  139.1661  167.1780 C.ar    1  UNL1       -0.0003
     13 C         142.8206  139.9303  165.8966 C.ar    1  UNL1       -0.0029
     14 C         141.9098  141.1206  165.8383 C.ar    1  UNL1       -0.0046
     15 C         141.5587  142.0623  164.7247 C.3     1  UNL1        0.1217
     16 C         139.7030  145.5226  162.2665 C.3     1  UNL1        0.1123
     17 C         140.0507  145.7178  160.8205 C.3     1  UNL1        0.0939
     18 C         140.5244  145.8824  157.8445 C.3     1  UNL1        0.0173
     19 C         141.3612  144.9798  158.7019 C.3     1  UNL1        0.0577
     20 C         142.5457  144.2724  158.1133 C.3     1  UNL1        0.0173
@<TRIPOS>BOND
     1    18    19    1
     2    19    20    1
     3    19     1    1
     4     1     2    1
     5     2     3    1
     6     3     4    1
     7     4     5   am
     8     5     6    2
     9     5     7   am
    10     7     8    1
    11     8     9    1
    12     9    10   ar
    13    10    11   ar
    14    11    12   ar
    15    12    13   ar
    16    13    14   ar
    17    14    15    1
    18     4    16    1
    19    16    17    1
    20    17     1    1
    21    15     7    1
    22    14     9   ar
@<TRIPOS>MOLECULE
*****
 20 22 0 0 0
SMALL
GASTEIGER

@<TRIPOS>ATOM
      1 N         141.7069  139.5374  161.2399 N.3     1  UNL1       -0.2711
      2 C         141.8285  140.5029  162.3813 C.3     1  UNL1        0.0939
      3 C         141.1495  140.2107  163.6865 C.3     1  UNL1        0.1123
      4 N         140.3488  138.9528  163.8502 N.am    1  UNL1       -0.2612
      5 C         139.6698  138.6605  165.1554 C.2     1  UNL1        0.3077
      6 O         138.8691  137.4027  165.3190 O.2     1  UNL1       -0.2523
      7 N         139.7914  139.6260  166.2968 N.am    1  UNL1       -0.2558
      8 C         139.1717  139.4696  167.6539 C.3     1  UNL1        0.1217
      9 C         139.5514  140.6644  168.4774 C.ar    1  UNL1       -0.0046
     10 C         139.2296  141.0531  169.8900 C.ar    1  UNL1       -0.0029
     11 C         139.7620  142.3367  170.4545 C.ar    1  UNL1       -0.0003
     12 C         140.6164  143.2317  169.6064 C.ar    1  UNL1       -0.0003
     13 C         140.9382  142.8430  168.1939 C.ar    1  UNL1       -0.0029
     14 C         140.4057  141.5594  167.6294 C.ar    1  UNL1       -0.0046
     15 C         140.5540  140.9176  166.2817 C.3     1  UNL1        0.1217
     16 C         140.2272  137.9873  162.7088 C.3     1  UNL1        0.1123
     17 C         140.9063  138.2796  161.4036 C.3     1  UNL1        0.0939
     18 C         141.8092  139.3022  158.6545 C.3     1  UNL1        0.0173
     19 C         142.3860  139.8297  159.9347 C.3     1  UNL1        0.0577
     20 C         143.6419  140.6496  159.9098 C.3     1  UNL1        0.0173
@<TRIPOS>BOND
     1    18    19    1
     2    19    20    1
     3    19     1    1
     4     1     2    1
     5     2     3    1
     6     3     4    1
     7     4     5   am
     8     5     6    2
     9     5     7   am
    10     7     8    1
    11     8     9    1
    12     9    10   ar
    13    10    11   ar
    14    11    12   ar
    15    12    13   ar
    16    13    14   ar
    17    14    15    1
    18     4    16    1
    19    16    17    1
    20    17     1    1
    21    15     7    1
    22    14     9   ar
@<TRIPOS>MOLECULE
*****
 20 22 0 0 0
SMALL
GASTEIGER

@<TRIPOS>ATOM
      1 N         143.4771  140.8854  161.7885 N.3     1  UNL1       -0.2711
      2 C         142.7801  141.6715  162.8592 C.3     1  UNL1        0.0939
      3 C         142.7239  141.1425  164.2616 C.3     1  UNL1        0.1123
      4 N         143.3647  139.8275  164.5935 N.am    1  UNL1       -0.2612
      5 C         143.3085  139.2986  165.9960 C.2     1  UNL1        0.3077
      6 O         143.9494  137.9836  166.3279 O.2     1  UNL1       -0.2523
      7 N         142.6115  140.0846  167.0667 N.am    1  UNL1       -0.2558
      8 C         142.4749  139.6854  168.5061 C.3     1  UNL1        0.1217
      9 C         141.7076  140.7619  169.2150 C.ar    1  UNL1       -0.0046
     10 C         141.2728  140.9103  170.6428 C.ar    1  UNL1       -0.0029
     11 C         140.5004  142.1233  171.0693 C.ar    1  UNL1       -0.0003
     12 C         140.1628  143.1879  170.0680 C.ar    1  UNL1       -0.0003
     13 C         140.5977  143.0395  168.6401 C.ar    1  UNL1       -0.0029
     14 C         141.3701  141.8265  168.2136 C.ar    1  UNL1       -0.0046
     15 C         141.9287  141.4079  166.8859 C.3     1  UNL1        0.1217
     16 C         144.0618  139.0415  163.5229 C.3     1  UNL1        0.1123
     17 C         144.1179  139.5705  162.1203 C.3     1  UNL1        0.0939
     18 C         143.7350  140.4721  159.2365 C.3     1  UNL1        0.0173
     19 C         143.5333  141.4144  160.3859 C.3     1  UNL1        0.0577
     20 C         143.3877  142.8858  160.1329 C.3     1  UNL1        0.0173
@<TRIPOS>BOND
     1    18    19    1
     2    19    20    1
     3    19     1    1
     4     1     2    1
     5     2     3    1
     6     3     4    1
     7     4     5   am
     8     5     6    2
     9     5     7   am
    10     7     8    1
    11     8     9    1
    12     9    10   ar
    13    10    11   ar
    14    11    12   ar
    15    12    13   ar
    16    13    14   ar
    17    14    15    1
    18     4    16    1
    19    16    17    1
    20    17     1    1
    21    15     7    1
    22    14     9   ar
@<TRIPOS>MOLECULE
*****
 20 22 0 0 0
SMALL
GASTEIGER

@<TRIPOS>ATOM
      1 N         139.7982  139.0221  161.9542 N.3     1  UNL1       -0.2711
      2 C         139.5724  140.0592  163.0141 C.3     1  UNL1        0.0939
      3 C         140.3880  140.0351  164.2728 C.3     1  UNL1        0.1123
      4 N         141.4294  138.9739  164.4715 N.am    1  UNL1       -0.2612
      5 C         142.2450  138.9499  165.7301 C.2     1  UNL1        0.3077
      6 O         143.2863  137.8887  165.9288 O.2     1  UNL1       -0.2523
      7 N         142.0192  139.9869  166.7901 N.am    1  UNL1       -0.2558
      8 C         142.7538  140.0896  168.0938 C.3     1  UNL1        0.1217
      9 C         142.2078  141.2695  168.8419 C.ar    1  UNL1       -0.0046
     10 C         142.5484  141.8544  170.1806 C.ar    1  UNL1       -0.0029
     11 C         141.8168  143.0657  170.6778 C.ar    1  UNL1       -0.0003
     12 C         140.7446  143.6923  169.8364 C.ar    1  UNL1       -0.0003
     13 C         140.4041  143.1075  168.4978 C.ar    1  UNL1       -0.0029
     14 C         141.1357  141.8961  168.0005 C.ar    1  UNL1       -0.0046
     15 C         141.0191  141.1034  166.7324 C.3     1  UNL1        0.1217
     16 C         141.6552  137.9369  163.4115 C.3     1  UNL1        0.1123
     17 C         140.8395  137.9610  162.1528 C.3     1  UNL1        0.0939
     18 C         137.5781  139.5723  160.7218 C.3     1  UNL1        0.0173
     19 C         138.9825  139.0462  160.6955 C.3     1  UNL1        0.0577
     20 C         139.5714  138.5442  159.4105 C.3     1  UNL1        0.0173
@<TRIPOS>BOND
     1    18    19    1
     2    19    20    1
     3    19     1    1
     4     1     2    1
     5     2     3    1
     6     3     4    1
     7     4     5   am
     8     5     6    2
     9     5     7   am
    10     7     8    1
    11     8     9    1
    12     9    10   ar
    13    10    11   ar
    14    11    12   ar
    15    12    13   ar
    16    13    14   ar
    17    14    15    1
    18     4    16    1
    19    16    17    1
    20    17     1    1
    21    15     7    1
    22    14     9   ar
@<TRIPOS>MOLECULE
*****
 20 22 0 0 0
SMALL
GASTEIGER

@<TRIPOS>ATOM
      1 N         139.9747  144.4671  158.3269 N.3     1  UNL1       -0.2711
      2 C         140.2145  144.2907  159.7970 C.3     1  UNL1        0.0939
      3 C         139.6463  143.1009  160.5122 C.3     1  UNL1        0.1123
      4 N         138.8383  142.0874  159.7571 N.am    1  UNL1       -0.2612
      5 C         138.2702  140.8975  160.4723 C.2     1  UNL1        0.3077
      6 O         137.4623  139.8841  159.7172 O.2     1  UNL1       -0.2523
      7 N         138.5100  140.7212  161.9424 N.am    1  UNL1       -0.2558
      8 C         138.0082  139.5883  162.7880 C.3     1  UNL1        0.1217
      9 C         138.4818  139.8137  164.1933 C.ar    1  UNL1       -0.0046
     10 C         138.2922  139.0249  165.4550 C.ar    1  UNL1       -0.0029
     11 C         138.8971  139.5082  166.7396 C.ar    1  UNL1       -0.0003
     12 C         139.6916  140.7803  166.7627 C.ar    1  UNL1       -0.0003
     13 C         139.8812  141.5691  165.5010 C.ar    1  UNL1       -0.0029
     14 C         139.2763  141.0858  164.2163 C.ar    1  UNL1       -0.0046
     15 C         139.2937  141.6466  162.8252 C.3     1  UNL1        0.1217
     16 C         138.5986  142.2638  158.2870 C.3     1  UNL1        0.1123
     17 C         139.1668  143.4537  157.5718 C.3     1  UNL1        0.0939
     18 C         139.6283  146.6214  156.9164 C.3     1  UNL1        0.0173
     19 C         140.5429  145.6570  157.6117 C.3     1  UNL1        0.0577
     20 C         142.0257  145.8825  157.5919 C.3     1  UNL1        0.0173
@<TRIPOS>BOND
     1    18    19    1
     2    19    20    1
     3    19     1    1
     4     1     2    1
     5     2     3    1
     6     3     4    1
     7     4     5   am
     8     5     6    2
     9     5     7   am
    10     7     8    1
    11     8     9    1
    12     9    10   ar
    13    10    11   ar
    14    11    12   ar
    15    12    13   ar
    16    13    14   ar
    17    14    15    1
    18     4    16    1
    19    16    17    1
    20    17     1    1
    21    15     7    1
    22    14     9   ar
