@<TRIPOS>MOLECULE
*****
 27 30 0 0 0
SMALL
GASTEIGER

@<TRIPOS>ATOM
      1 C         138.7487  138.0029  163.9411 C.3     1  UNL1        0.0721
      2 C         138.7253  138.8230  162.6854 C.3     1  UNL1        0.0191
      3 C         139.2356  138.1389  161.4518 C.3     1  UNL1        0.0062
      4 C         139.3414  138.6817  160.0574 C.3     1  UNL1        0.0277
      5 C         138.9629  140.0424  159.5522 C.ar    1  UNL1       -0.0063
      6 C         139.2315  140.1756  158.0825 C.ar    1  UNL1       -0.0014
      7 C         138.9224  141.4628  157.3772 C.ar    1  UNL1        0.0203
      8 C         138.3448  142.6169  158.1416 C.ar    1  UNL1        0.0985
      9 N         138.0762  142.4838  159.6113 N.ar    1  UNL1       -0.2461
     10 C         138.3853  141.1965  160.3166 C.ar    1  UNL1        0.0817
     11 C         138.0434  141.2749  161.7751 C.3     1  UNL1        0.1498
     12 O         137.4750  142.5826  162.2409 O.3     1  UNL1       -0.3785
     13 C         138.1947  140.2186  162.8293 C.3     1  UNL1        0.0368
     14 H         137.4170  143.1953  161.4911 H       1  UNL1        0.2108
     15 C         139.2890  140.2892  169.1681 C.3     1  UNL1        0.0045
     16 C         139.8993  139.9087  167.8519 C.3     1  UNL1        0.0216
     17 C         138.4894  139.4482  167.6281 C.3     1  UNL1        0.0214
     18 C         138.1058  138.8129  166.3245 C.3     1  UNL1        0.0724
     19 N         139.1322  138.6382  165.2447 N.3     1  UNL1       -0.2727
     20 C         140.5422  139.0987  165.4685 C.3     1  UNL1        0.0724
     21 C         140.9257  139.7339  166.7721 C.3     1  UNL1        0.0214
     22 C         141.0973  140.5013  168.5328 C.ar    1  UNL1       -0.0227
     23 C         141.7960  139.7390  169.6194 C.ar    1  UNL1       -0.0043
     24 C         142.9940  140.3317  170.3003 C.ar    1  UNL1       -0.0003
     25 C         143.4932  141.6867  169.8945 C.ar    1  UNL1       -0.0000
     26 C         142.7946  142.4490  168.8079 C.ar    1  UNL1       -0.0003
     27 C         141.5966  141.8564  168.1270 C.ar    1  UNL1       -0.0043
@<TRIPOS>BOND
     1    15    16    1
     2    16    22    1
     3    22    23   ar
     4    23    24   ar
     5    24    25   ar
     6    25    26   ar
     7    26    27   ar
     8    16    17    1
     9    17    18    1
    10    18    19    1
    11    19     1    1
    12     2     1    1
    13     2     3    1
    14     3     4    1
    15     4     5    1
    16     5     6   ar
    17     6     7   ar
    18     7     8   ar
    19     8     9   ar
    20     9    10   ar
    21    10    11    1
    22    11    12    1
    23    11    13    1
    24    19    20    1
    25    20    21    1
    26    21    16    1
    27    27    22   ar
    28    13     2    1
    29    10     5   ar
    30    12    14    1
@<TRIPOS>MOLECULE
*****
 27 30 0 0 0
SMALL
GASTEIGER

@<TRIPOS>ATOM
      1 C         140.6422  137.2220  163.7654 C.3     1  UNL1        0.0721
      2 C         140.3715  137.8416  162.4265 C.3     1  UNL1        0.0191
      3 C         141.5494  137.9345  161.5023 C.3     1  UNL1        0.0062
      4 C         141.6053  138.4952  160.1121 C.3     1  UNL1        0.0277
      5 C         140.4974  139.1015  159.3028 C.ar    1  UNL1       -0.0063
      6 C         140.9817  139.5404  157.9528 C.ar    1  UNL1       -0.0014
      7 C         140.0285  140.1748  156.9838 C.ar    1  UNL1        0.0203
      8 C         138.5910  140.3701  157.3648 C.ar    1  UNL1        0.0985
      9 N         138.1066  139.9311  158.7149 N.ar    1  UNL1       -0.2461
     10 C         139.0598  139.2968  159.6839 C.ar    1  UNL1        0.0817
     11 C         138.3751  138.9341  160.9683 C.3     1  UNL1        0.1498
     12 O         136.9133  139.2625  161.0418 O.3     1  UNL1       -0.3785
     13 C         138.9588  138.2865  162.1889 C.3     1  UNL1        0.0368
     14 H         136.6324  139.6751  160.2101 H       1  UNL1        0.2108
     15 C         142.8939  140.2401  168.0854 C.3     1  UNL1        0.0045
     16 C         141.6983  139.8280  167.2787 C.3     1  UNL1        0.0216
     17 C         142.7698  139.0524  166.5713 C.3     1  UNL1        0.0214
     18 C         142.4178  138.1837  165.4002 C.3     1  UNL1        0.0724
     19 N         140.9943  138.0906  164.9365 N.3     1  UNL1       -0.2727
     20 C         139.9228  138.8662  165.6440 C.3     1  UNL1        0.0724
     21 C         140.2748  139.7349  166.8150 C.3     1  UNL1        0.0214
     22 C         141.0421  140.7467  168.2663 C.ar    1  UNL1       -0.0227
     23 C         139.9590  140.2302  169.1664 C.ar    1  UNL1       -0.0043
     24 C         139.3027  141.1489  170.1539 C.ar    1  UNL1       -0.0003
     25 C         139.7296  142.5842  170.2414 C.ar    1  UNL1       -0.0000
     26 C         140.8126  143.1007  169.3413 C.ar    1  UNL1       -0.0003
     27 C         141.4689  142.1820  168.3538 C.ar    1  UNL1       -0.0043
@<TRIPOS>BOND
     1    15    16    1
     2    16    22    1
     3    22    23   ar
     4    23    24   ar
     5    24    25   ar
     6    25    26   ar
     7    26    27   ar
     8    16    17    1
     9    17    18    1
    10    18    19    1
    11    19     1    1
    12     2     1    1
    13     2     3    1
    14     3     4    1
    15     4     5    1
    16     5     6   ar
    17     6     7   ar
    18     7     8   ar
    19     8     9   ar
    20     9    10   ar
    21    10    11    1
    22    11    12    1
    23    11    13    1
    24    19    20    1
    25    20    21    1
    26    21    16    1
    27    27    22   ar
    28    13     2    1
    29    10     5   ar
    30    12    14    1
@<TRIPOS>MOLECULE
*****
 27 30 0 0 0
SMALL
GASTEIGER

@<TRIPOS>ATOM
      1 C         140.5515  137.3598  163.6784 C.3     1  UNL1        0.0721
      2 C         140.9451  137.8285  162.3090 C.3     1  UNL1        0.0191
      3 C         139.8125  138.1045  161.3650 C.3     1  UNL1        0.0062
      4 C         139.8744  138.5793  159.9435 C.3     1  UNL1        0.0277
      5 C         141.0841  138.8956  159.1148 C.ar    1  UNL1       -0.0063
      6 C         140.7017  139.3417  157.7348 C.ar    1  UNL1       -0.0014
      7 C         141.7659  139.7074  156.7430 C.ar    1  UNL1        0.0203
      8 C         143.2125  139.6269  157.1312 C.ar    1  UNL1        0.0985
      9 N         143.5949  139.1807  158.5113 N.ar    1  UNL1       -0.2461
     10 C         142.5308  138.8151  159.5031 C.ar    1  UNL1        0.0817
     11 C         143.1249  138.3984  160.8159 C.3     1  UNL1        0.1498
     12 O         144.6229  138.4242  160.8896 O.3     1  UNL1       -0.3785
     13 C         142.4193  137.9593  162.0646 C.3     1  UNL1        0.0368
     14 H         144.9835  138.7193  160.0389 H       1  UNL1        0.2108
     15 C         142.8214  140.1207  168.1579 C.3     1  UNL1        0.0045
     16 C         141.6355  139.8107  167.2934 C.3     1  UNL1        0.0216
     17 C         142.6797  138.9768  166.6121 C.3     1  UNL1        0.0214
     18 C         142.3184  138.1598  165.4071 C.3     1  UNL1        0.0724
     19 N         140.9129  138.1768  164.8834 N.3     1  UNL1       -0.2727
     20 C         139.8687  139.0108  165.5647 C.3     1  UNL1        0.0724
     21 C         140.2300  139.8277  166.7697 C.3     1  UNL1        0.0214
     22 C         141.0032  140.7523  168.2749 C.ar    1  UNL1       -0.0227
     23 C         141.4251  142.1913  168.3126 C.ar    1  UNL1       -0.0043
     24 C         140.7928  143.1329  169.2942 C.ar    1  UNL1       -0.0003
     25 C         139.7385  142.6355  170.2381 C.ar    1  UNL1       -0.0000
     26 C         139.3165  141.1966  170.2005 C.ar    1  UNL1       -0.0003
     27 C         139.9488  140.2550  169.2189 C.ar    1  UNL1       -0.0043
@<TRIPOS>BOND
     1    15    16    1
     2    16    22    1
     3    22    23   ar
     4    23    24   ar
     5    24    25   ar
     6    25    26   ar
     7    26    27   ar
     8    16    17    1
     9    17    18    1
    10    18    19    1
    11    19     1    1
    12     2     1    1
    13     2     3    1
    14     3     4    1
    15     4     5    1
    16     5     6   ar
    17     6     7   ar
    18     7     8   ar
    19     8     9   ar
    20     9    10   ar
    21    10    11    1
    22    11    12    1
    23    11    13    1
    24    19    20    1
    25    20    21    1
    26    21    16    1
    27    27    22   ar
    28    13     2    1
    29    10     5   ar
    30    12    14    1
@<TRIPOS>MOLECULE
*****
 27 30 0 0 0
SMALL
GASTEIGER

@<TRIPOS>ATOM
      1 C         137.6776  142.6391  163.4017 C.3     1  UNL1        0.0721
      2 C         138.3929  143.0769  162.1580 C.3     1  UNL1        0.0191
      3 C         138.2377  142.1780  160.9673 C.3     1  UNL1        0.0062
      4 C         138.8201  142.3360  159.5941 C.3     1  UNL1        0.0277
      5 C         139.7015  143.4318  159.0723 C.ar    1  UNL1       -0.0063
      6 C         140.0626  143.2067  157.6339 C.ar    1  UNL1       -0.0014
      7 C         140.9404  144.1902  156.9183 C.ar    1  UNL1        0.0203
      8 C         141.4571  145.3988  157.6410 C.ar    1  UNL1        0.0985
      9 N         141.0961  145.6239  159.0793 N.ar    1  UNL1       -0.2461
     10 C         140.2183  144.6404  159.7950 C.ar    1  UNL1        0.0817
     11 C         139.9812  145.0516  161.2179 C.3     1  UNL1        0.1498
     12 O         140.6441  146.3273  161.6458 O.3     1  UNL1       -0.3785
     13 C         139.1689  144.3558  162.2696 C.3     1  UNL1        0.0368
     14 H         141.1421  146.6986  160.9007 H       1  UNL1        0.2108
     15 C         140.3120  140.0733  167.7970 C.3     1  UNL1        0.0045
     16 C         140.0298  141.3134  167.0016 C.3     1  UNL1        0.0216
     17 C         139.2087  140.3197  166.2347 C.3     1  UNL1        0.0214
     18 C         138.4246  140.7615  165.0347 C.3     1  UNL1        0.0724
     19 N         138.4617  142.1972  164.6016 N.3     1  UNL1       -0.2727
     20 C         139.2828  143.1910  165.3686 C.3     1  UNL1        0.0724
     21 C         140.0669  142.7491  166.5686 C.3     1  UNL1        0.0214
     22 C         140.9489  141.8765  168.0448 C.ar    1  UNL1       -0.0227
     23 C         140.4411  142.8967  169.0201 C.ar    1  UNL1       -0.0043
     24 C         141.3602  143.4598  170.0633 C.ar    1  UNL1       -0.0003
     25 C         142.7872  143.0027  170.1310 C.ar    1  UNL1       -0.0000
     26 C         143.2951  141.9825  169.1557 C.ar    1  UNL1       -0.0003
     27 C         142.3760  141.4194  168.1126 C.ar    1  UNL1       -0.0043
@<TRIPOS>BOND
     1    15    16    1
     2    16    22    1
     3    22    23   ar
     4    23    24   ar
     5    24    25   ar
     6    25    26   ar
     7    26    27   ar
     8    16    17    1
     9    17    18    1
    10    18    19    1
    11    19     1    1
    12     2     1    1
    13     2     3    1
    14     3     4    1
    15     4     5    1
    16     5     6   ar
    17     6     7   ar
    18     7     8   ar
    19     8     9   ar
    20     9    10   ar
    21    10    11    1
    22    11    12    1
    23    11    13    1
    24    19    20    1
    25    20    21    1
    26    21    16    1
    27    27    22   ar
    28    13     2    1
    29    10     5   ar
    30    12    14    1
@<TRIPOS>MOLECULE
*****
 27 30 0 0 0
SMALL
GASTEIGER

@<TRIPOS>ATOM
      1 C         138.7849  137.6696  164.6316 C.3     1  UNL1        0.0721
      2 C         139.2203  138.1627  163.2835 C.3     1  UNL1        0.0191
      3 C         138.2806  139.1139  162.6038 C.3     1  UNL1        0.0062
      4 C         138.4264  139.7767  161.2661 C.3     1  UNL1        0.0277
      5 C         139.5478  139.6519  160.2777 C.ar    1  UNL1       -0.0063
      6 C         139.2985  140.4881  159.0576 C.ar    1  UNL1       -0.0014
      7 C         140.3019  140.5058  157.9428 C.ar    1  UNL1        0.0203
      8 C         141.5545  139.6874  158.0480 C.ar    1  UNL1        0.0985
      9 N         141.8038  138.8512  159.2681 N.ar    1  UNL1       -0.2461
     10 C         140.8004  138.8335  160.3829 C.ar    1  UNL1        0.0817
     11 C         141.2410  137.9378  161.5026 C.3     1  UNL1        0.1498
     12 O         142.5592  137.2496  161.3052 O.3     1  UNL1       -0.3785
     13 C         140.5379  137.6392  162.7935 C.3     1  UNL1        0.0368
     14 H         142.9321  137.5053  160.4471 H       1  UNL1        0.2108
     15 C         138.9863  140.5098  169.6050 C.3     1  UNL1        0.0045
     16 C         139.6311  140.1251  168.3065 C.3     1  UNL1        0.0216
     17 C         138.3302  139.3894  168.1793 C.3     1  UNL1        0.0214
     18 C         138.0481  138.5708  166.9543 C.3     1  UNL1        0.0724
     19 N         139.0670  138.4881  165.8566 N.3     1  UNL1       -0.2727
     20 C         140.3680  139.2239  165.9838 C.3     1  UNL1        0.0724
     21 C         140.6500  140.0424  167.2087 C.3     1  UNL1        0.0214
     22 C         140.7081  140.9945  168.8846 C.ar    1  UNL1       -0.0227
     23 C         142.0964  140.4535  169.0581 C.ar    1  UNL1       -0.0043
     24 C         143.1734  141.3229  169.6362 C.ar    1  UNL1       -0.0003
     25 C         142.8621  142.7333  170.0409 C.ar    1  UNL1       -0.0000
     26 C         141.4739  143.2743  169.8676 C.ar    1  UNL1       -0.0003
     27 C         140.3969  142.4049  169.2894 C.ar    1  UNL1       -0.0043
@<TRIPOS>BOND
     1    15    16    1
     2    16    22    1
     3    22    23   ar
     4    23    24   ar
     5    24    25   ar
     6    25    26   ar
     7    26    27   ar
     8    16    17    1
     9    17    18    1
    10    18    19    1
    11    19     1    1
    12     2     1    1
    13     2     3    1
    14     3     4    1
    15     4     5    1
    16     5     6   ar
    17     6     7   ar
    18     7     8   ar
    19     8     9   ar
    20     9    10   ar
    21    10    11    1
    22    11    12    1
    23    11    13    1
    24    19    20    1
    25    20    21    1
    26    21    16    1
    27    27    22   ar
    28    13     2    1
    29    10     5   ar
    30    12    14    1
@<TRIPOS>MOLECULE
*****
 27 30 0 0 0
SMALL
GASTEIGER

@<TRIPOS>ATOM
      1 C         137.8659  143.4172  163.3863 C.3     1  UNL1        0.0721
      2 C         138.5616  143.6409  162.0763 C.3     1  UNL1        0.0191
      3 C         139.4468  144.8499  162.0077 C.3     1  UNL1        0.0062
      4 C         140.2691  145.3426  160.8540 C.3     1  UNL1        0.0277
      5 C         140.4093  144.7481  159.4840 C.ar    1  UNL1       -0.0063
      6 C         141.3355  145.5589  158.6269 C.ar    1  UNL1       -0.0014
      7 C         141.6142  145.1356  157.2151 C.ar    1  UNL1        0.0203
      8 C         140.9666  143.9015  156.6605 C.ar    1  UNL1        0.0985
      9 N         140.0404  143.0907  157.5176 N.ar    1  UNL1       -0.2461
     10 C         139.7617  143.5140  158.9293 C.ar    1  UNL1        0.0817
     11 C         138.8141  142.5696  159.6077 C.3     1  UNL1        0.1498
     12 O         138.3376  141.4162  158.7755 O.3     1  UNL1       -0.3785
     13 C         138.2799  142.6261  161.0082 C.3     1  UNL1        0.0368
     14 H         138.7362  141.4680  157.8927 H       1  UNL1        0.2108
     15 C         140.3759  140.3398  167.5180 C.3     1  UNL1        0.0045
     16 C         140.1235  141.6651  166.8624 C.3     1  UNL1        0.0216
     17 C         139.3107  140.7743  165.9705 C.3     1  UNL1        0.0214
     18 C         138.5581  141.3583  164.8117 C.3     1  UNL1        0.0724
     19 N         138.6184  142.8332  164.5450 N.3     1  UNL1       -0.2727
     20 C         139.4313  143.7240  165.4370 C.3     1  UNL1        0.0724
     21 C         140.1838  143.1400  166.5957 C.3     1  UNL1        0.0214
     22 C         141.0240  142.0957  167.9821 C.ar    1  UNL1       -0.0227
     23 C         140.5178  143.0416  169.0304 C.ar    1  UNL1       -0.0043
     24 C         141.4183  143.4722  170.1501 C.ar    1  UNL1       -0.0003
     25 C         142.8252  142.9568  170.2213 C.ar    1  UNL1       -0.0000
     26 C         143.3315  142.0110  169.1731 C.ar    1  UNL1       -0.0003
     27 C         142.4310  141.5804  168.0534 C.ar    1  UNL1       -0.0043
@<TRIPOS>BOND
     1    15    16    1
     2    16    22    1
     3    22    23   ar
     4    23    24   ar
     5    24    25   ar
     6    25    26   ar
     7    26    27   ar
     8    16    17    1
     9    17    18    1
    10    18    19    1
    11    19     1    1
    12     2     1    1
    13     2     3    1
    14     3     4    1
    15     4     5    1
    16     5     6   ar
    17     6     7   ar
    18     7     8   ar
    19     8     9   ar
    20     9    10   ar
    21    10    11    1
    22    11    12    1
    23    11    13    1
    24    19    20    1
    25    20    21    1
    26    21    16    1
    27    27    22   ar
    28    13     2    1
    29    10     5   ar
    30    12    14    1
@<TRIPOS>MOLECULE
*****
 27 30 0 0 0
SMALL
GASTEIGER

@<TRIPOS>ATOM
      1 C         143.9038  138.9583  163.9158 C.3     1  UNL1        0.0721
      2 C         143.9316  139.5435  162.5349 C.3     1  UNL1        0.0191
      3 C         143.5053  138.6234  161.4295 C.3     1  UNL1        0.0062
      4 C         143.4242  138.9041  159.9582 C.3     1  UNL1        0.0277
      5 C         143.7491  140.1740  159.2289 C.ar    1  UNL1       -0.0063
      6 C         143.5299  140.0293  157.7521 C.ar    1  UNL1       -0.0014
      7 C         143.7972  141.1875  156.8373 C.ar    1  UNL1        0.0203
      8 C         144.2836  142.4904  157.3992 C.ar    1  UNL1        0.0985
      9 N         144.5028  142.6351  158.8760 N.ar    1  UNL1       -0.2461
     10 C         144.2356  141.4769  159.7909 C.ar    1  UNL1        0.0817
     11 C         144.5171  141.8317  161.2209 C.3     1  UNL1        0.1498
     12 O         144.9975  143.2322  161.4614 O.3     1  UNL1       -0.3785
     13 C         144.3819  140.9713  162.4421 C.3     1  UNL1        0.0368
     14 H         145.0516  143.7051  160.6163 H       1  UNL1        0.2108
     15 C         139.1386  139.7038  167.0106 C.3     1  UNL1        0.0045
     16 C         140.5780  140.0350  166.7494 C.3     1  UNL1        0.0216
     17 C         140.3371  139.0389  165.6542 C.3     1  UNL1        0.0214
     18 C         141.4457  138.6799  164.7096 C.3     1  UNL1        0.0724
     19 N         142.7952  139.3172  164.8603 N.3     1  UNL1       -0.2727
     20 C         143.0362  140.3133  165.9556 C.3     1  UNL1        0.0724
     21 C         141.9276  140.6722  166.9002 C.3     1  UNL1        0.0214
     22 C         140.3191  140.9161  167.9354 C.ar    1  UNL1       -0.0227
     23 C         139.6779  140.3476  169.1665 C.ar    1  UNL1       -0.0043
     24 C         139.4189  141.2287  170.3525 C.ar    1  UNL1       -0.0003
     25 C         139.8012  142.6784  170.3073 C.ar    1  UNL1       -0.0000
     26 C         140.4424  143.2470  169.0763 C.ar    1  UNL1       -0.0003
     27 C         140.7014  142.3659  167.8903 C.ar    1  UNL1       -0.0043
@<TRIPOS>BOND
     1    15    16    1
     2    16    22    1
     3    22    23   ar
     4    23    24   ar
     5    24    25   ar
     6    25    26   ar
     7    26    27   ar
     8    16    17    1
     9    17    18    1
    10    18    19    1
    11    19     1    1
    12     2     1    1
    13     2     3    1
    14     3     4    1
    15     4     5    1
    16     5     6   ar
    17     6     7   ar
    18     7     8   ar
    19     8     9   ar
    20     9    10   ar
    21    10    11    1
    22    11    12    1
    23    11    13    1
    24    19    20    1
    25    20    21    1
    26    21    16    1
    27    27    22   ar
    28    13     2    1
    29    10     5   ar
    30    12    14    1
@<TRIPOS>MOLECULE
*****
 27 30 0 0 0
SMALL
GASTEIGER

@<TRIPOS>ATOM
      1 C         144.4064  141.7775  163.1624 C.3     1  UNL1        0.0721
      2 C         144.1248  141.1085  161.8497 C.3     1  UNL1        0.0191
      3 C         144.2503  141.9799  160.6352 C.3     1  UNL1        0.0062
      4 C         144.0369  141.6145  159.1961 C.3     1  UNL1        0.0277
      5 C         143.6453  140.2878  158.6160 C.ar    1  UNL1       -0.0063
      6 C         143.5389  140.3531  157.1213 C.ar    1  UNL1       -0.0014
      7 C         143.1576  139.1292  156.3424 C.ar    1  UNL1        0.0203
      8 C         142.8827  137.8400  157.0583 C.ar    1  UNL1        0.0985
      9 N         142.9892  137.7747  158.5530 N.ar    1  UNL1       -0.2461
     10 C         143.3705  138.9986  159.3319 C.ar    1  UNL1        0.0817
     11 C         143.4193  138.7178  160.8046 C.3     1  UNL1        0.1498
     12 O         143.0887  137.3121  161.2104 O.3     1  UNL1       -0.3785
     13 C         143.7550  139.6568  161.9252 C.3     1  UNL1        0.0368
     14 H         142.8873  136.7864  160.4205 H       1  UNL1        0.2108
     15 C         139.8570  143.4583  166.2151 C.3     1  UNL1        0.0045
     16 C         141.0489  142.5620  166.0540 C.3     1  UNL1        0.0216
     17 C         141.1577  143.3690  164.7943 C.3     1  UNL1        0.0214
     18 C         142.2769  143.1075  163.8304 C.3     1  UNL1        0.0724
     19 N         143.2873  142.0390  164.1263 N.3     1  UNL1       -0.2727
     20 C         143.1784  141.2319  165.3860 C.3     1  UNL1        0.0724
     21 C         142.0592  141.4934  166.3499 C.3     1  UNL1        0.0214
     22 C         140.5261  142.0662  167.3697 C.ar    1  UNL1       -0.0227
     23 C         139.9567  140.6827  167.4773 C.ar    1  UNL1       -0.0043
     24 C         139.4339  140.1870  168.7930 C.ar    1  UNL1       -0.0003
     25 C         139.4806  141.0749  170.0010 C.ar    1  UNL1       -0.0000
     26 C         140.0499  142.4584  169.8935 C.ar    1  UNL1       -0.0003
     27 C         140.5727  142.9541  168.5778 C.ar    1  UNL1       -0.0043
@<TRIPOS>BOND
     1    15    16    1
     2    16    22    1
     3    22    23   ar
     4    23    24   ar
     5    24    25   ar
     6    25    26   ar
     7    26    27   ar
     8    16    17    1
     9    17    18    1
    10    18    19    1
    11    19     1    1
    12     2     1    1
    13     2     3    1
    14     3     4    1
    15     4     5    1
    16     5     6   ar
    17     6     7   ar
    18     7     8   ar
    19     8     9   ar
    20     9    10   ar
    21    10    11    1
    22    11    12    1
    23    11    13    1
    24    19    20    1
    25    20    21    1
    26    21    16    1
    27    27    22   ar
    28    13     2    1
    29    10     5   ar
    30    12    14    1
@<TRIPOS>MOLECULE
*****
 27 30 0 0 0
SMALL
GASTEIGER

@<TRIPOS>ATOM
      1 C         144.4406  139.4418  163.4469 C.3     1  UNL1        0.0721
      2 C         143.5442  139.3371  162.2488 C.3     1  UNL1        0.0191
      3 C         142.1259  138.9377  162.5300 C.3     1  UNL1        0.0062
      4 C         140.9978  138.7482  161.5597 C.3     1  UNL1        0.0277
      5 C         141.0092  138.9113  160.0686 C.ar    1  UNL1       -0.0063
      6 C         139.6617  138.6241  159.4756 C.ar    1  UNL1       -0.0014
      7 C         139.4567  138.7299  157.9935 C.ar    1  UNL1        0.0203
      8 C         140.5991  139.1228  157.1044 C.ar    1  UNL1        0.0985
      9 N         141.9466  139.4099  157.6974 N.ar    1  UNL1       -0.2461
     10 C         142.1517  139.3042  159.1795 C.ar    1  UNL1        0.0817
     11 C         143.5648  139.6310  159.5620 C.3     1  UNL1        0.1498
     12 O         144.4792  139.9907  158.4286 O.3     1  UNL1       -0.3785
     13 C         144.1846  139.6457  160.9279 C.3     1  UNL1        0.0368
     14 H         143.9884  139.9527  157.5928 H       1  UNL1        0.2108
     15 C         142.2995  139.5452  168.7616 C.3     1  UNL1        0.0045
     16 C         142.6835  140.2703  167.5060 C.3     1  UNL1        0.0216
     17 C         143.0634  138.8703  167.1248 C.3     1  UNL1        0.0214
     18 C         143.6492  138.5940  165.7717 C.3     1  UNL1        0.0724
     19 N         143.8549  139.7180  164.7999 N.3     1  UNL1       -0.2727
     20 C         143.4749  141.1181  165.1812 C.3     1  UNL1        0.0724
     21 C         142.8892  141.3943  166.5342 C.3     1  UNL1        0.0214
     22 C         142.1702  141.4186  168.3233 C.ar    1  UNL1       -0.0227
     23 C         143.0140  141.9936  169.4221 C.ar    1  UNL1       -0.0043
     24 C         142.5007  143.1419  170.2393 C.ar    1  UNL1       -0.0003
     25 C         141.1435  143.7152  169.9578 C.ar    1  UNL1       -0.0000
     26 C         140.2996  143.1403  168.8590 C.ar    1  UNL1       -0.0003
     27 C         140.8129  141.9920  168.0417 C.ar    1  UNL1       -0.0043
@<TRIPOS>BOND
     1    15    16    1
     2    16    22    1
     3    22    23   ar
     4    23    24   ar
     5    24    25   ar
     6    25    26   ar
     7    26    27   ar
     8    16    17    1
     9    17    18    1
    10    18    19    1
    11    19     1    1
    12     2     1    1
    13     2     3    1
    14     3     4    1
    15     4     5    1
    16     5     6   ar
    17     6     7   ar
    18     7     8   ar
    19     8     9   ar
    20     9    10   ar
    21    10    11    1
    22    11    12    1
    23    11    13    1
    24    19    20    1
    25    20    21    1
    26    21    16    1
    27    27    22   ar
    28    13     2    1
    29    10     5   ar
    30    12    14    1
