@<TRIPOS>MOLECULE
*****
 37 40 0 0 0
SMALL
GASTEIGER

@<TRIPOS>ATOM
      1 C         137.5542  140.8285  161.8654 C.2     1  UNL1        0.4062
      2 O         137.5807  140.7689  160.3667 O.2     1  UNL1       -0.2260
      3 N         137.8155  139.5899  162.6700 N.am    1  UNL1       -0.2703
      4 H         137.7981  139.6290  163.6535 H       1  UNL1        0.1527
      5 O         137.2663  142.1268  162.5593 O.3     1  UNL1       -0.4103
      6 C         140.9221  143.3520  163.4997 C.ar    1  UNL1        0.0377
      7 C         140.6119  144.4376  164.4873 C.ar    1  UNL1        0.0032
      8 C         139.1866  144.7530  164.8321 C.ar    1  UNL1        0.0032
      9 C         138.0714  143.9827  164.1895 C.ar    1  UNL1        0.0377
     10 C         138.3815  142.8971  163.2020 C.ar    1  UNL1        0.1501
     11 C         139.8069  142.5818  162.8571 C.ar    1  UNL1        0.0407
     12 C         145.9120  141.6570  163.8303 C.3     1  UNL1        0.0725
     13 C         144.6410  142.2576  163.3068 C.ar    1  UNL1        0.1234
     14 C         144.4406  142.8452  161.9412 C.ar    1  UNL1        0.0405
     15 C         143.0231  143.3267  161.8474 C.ar    1  UNL1        0.0903
     16 C         142.3474  143.0367  163.1548 C.ar    1  UNL1        0.1492
     17 O         143.3474  142.3759  164.0568 O.2     1  UNL1       -0.4576
     18 C         142.3920  143.9830  160.6553 C.2     1  UNL1        0.2458
     19 N         141.8376  145.3720  160.7698 N.am    1  UNL1       -0.3252
     20 O         142.3154  143.2503  159.3487 O.2     1  UNL1       -0.2703
     21 H         141.8879  145.8530  161.6273 H       1  UNL1        0.1453
     22 H         141.4234  145.8027  159.9874 H       1  UNL1        0.1453
     23 C         138.1033  138.2915  161.9759 C.3     1  UNL1        0.0941
     24 C         139.5117  137.7820  161.8923 C.3     1  UNL1        0.0387
     25 C         140.2452  137.3964  163.1425 C.3     1  UNL1        0.0740
     26 N         140.2214  138.3043  164.3363 N.3     1  UNL1       -0.2697
     27 C         141.2773  139.3573  164.4990 C.3     1  UNL1        0.0938
     28 C         141.2534  140.2652  165.6928 C.3     1  UNL1        0.1081
     29 N         140.1737  140.1201  166.7239 N.pl3   1  UNL1       -0.3046
     30 C         139.1179  139.0672  166.5612 C.3     1  UNL1        0.1081
     31 C         139.1417  138.1593  165.3674 C.3     1  UNL1        0.0938
     32 C         140.1498  141.0280  167.9177 C.ar    1  UNL1        0.0479
     33 C         140.4051  142.4965  167.7484 C.ar    1  UNL1        0.0145
     34 C         140.3813  143.4043  168.9422 C.ar    1  UNL1        0.0013
     35 C         140.1021  142.8438  170.3053 C.ar    1  UNL1        0.0001
     36 C         139.8468  141.3754  170.4746 C.ar    1  UNL1        0.0013
     37 C         139.8707  140.4675  169.2808 C.ar    1  UNL1        0.0145
@<TRIPOS>BOND
     1    12    13    1
     2    13    14   ar
     3    14    15   ar
     4    15    18    1
     5    18    19   am
     6    18    20    2
     7    15    16   ar
     8    16     6    1
     9     6     7   ar
    10     7     8   ar
    11     8     9   ar
    12     9    10   ar
    13    10     5    1
    14     5     1    1
    15     1     2    2
    16     1     3   am
    17     3    23    1
    18    23    24    1
    19    24    25    1
    20    25    26    1
    21    26    27    1
    22    27    28    1
    23    28    29    1
    24    29    32    1
    25    32    33   ar
    26    33    34   ar
    27    34    35   ar
    28    35    36   ar
    29    36    37   ar
    30    29    30    1
    31    30    31    1
    32    10    11   ar
    33    16    17   ar
    34    17    13   ar
    35    11     6   ar
    36    31    26    1
    37    37    32   ar
    38    19    21    1
    39    19    22    1
    40     3     4    1
@<TRIPOS>MOLECULE
*****
 37 40 0 0 0
SMALL
GASTEIGER

@<TRIPOS>ATOM
      1 C         140.6987  145.3331  161.6903 C.2     1  UNL1        0.4062
      2 O         139.3079  144.7921  161.5382 O.2     1  UNL1       -0.2260
      3 N         141.5656  145.5241  160.4812 N.am    1  UNL1       -0.2703
      4 H         142.4784  145.8791  160.5810 H       1  UNL1        0.1527
      5 O         141.2226  145.6830  163.0516 O.3     1  UNL1       -0.4103
      6 C         141.6384  142.5515  165.4538 C.ar    1  UNL1        0.0377
      7 C         143.1295  142.5117  165.6122 C.ar    1  UNL1        0.0032
      8 C         143.9849  143.5290  164.9171 C.ar    1  UNL1        0.0032
      9 C         143.3493  144.5861  164.0635 C.ar    1  UNL1        0.0377
     10 C         141.8582  144.6259  163.9051 C.ar    1  UNL1        0.1501
     11 C         141.0028  143.6086  164.6003 C.ar    1  UNL1        0.0407
     12 C         138.0945  138.7421  166.3538 C.3     1  UNL1        0.0725
     13 C         139.1540  139.7832  166.5627 C.ar    1  UNL1        0.1234
     14 C         139.7791  140.1542  167.8749 C.ar    1  UNL1        0.0405
     15 C         140.7858  141.2363  167.6191 C.ar    1  UNL1        0.0903
     16 C         140.7829  141.5342  166.1490 C.ar    1  UNL1        0.1492
     17 O         139.7744  140.6361  165.4961 O.2     1  UNL1       -0.4576
     18 C         141.6446  141.9035  168.6522 C.2     1  UNL1        0.2458
     19 N         142.9558  141.2911  169.0467 N.am    1  UNL1       -0.3252
     20 O         141.1922  143.1831  169.2909 O.2     1  UNL1       -0.2703
     21 H         143.2528  140.4513  168.6276 H       1  UNL1        0.1453
     22 H         143.5195  141.7291  169.7248 H       1  UNL1        0.1453
     23 C         141.0417  145.1741  159.1199 C.3     1  UNL1        0.0941
     24 C         141.9566  144.5686  158.0970 C.3     1  UNL1        0.0387
     25 C         143.0179  143.5973  158.5214 C.3     1  UNL1        0.0740
     26 N         142.7099  142.5538  159.5540 N.3     1  UNL1       -0.2697
     27 C         141.6779  141.5021  159.2729 C.3     1  UNL1        0.0938
     28 C         141.3700  140.4586  160.3056 C.3     1  UNL1        0.1081
     29 N         142.0941  140.4669  161.6193 N.pl3   1  UNL1       -0.3046
     30 C         143.1260  141.5186  161.9003 C.3     1  UNL1        0.1081
     31 C         143.4339  142.5620  160.8676 C.3     1  UNL1        0.0938
     32 C         141.7862  139.4234  162.6519 C.ar    1  UNL1        0.0479
     33 C         142.6614  139.2848  163.8623 C.ar    1  UNL1        0.0145
     34 C         142.3534  138.2413  164.8949 C.ar    1  UNL1        0.0013
     35 C         141.1703  137.3365  164.7172 C.ar    1  UNL1        0.0001
     36 C         140.2952  137.4751  163.5069 C.ar    1  UNL1        0.0013
     37 C         140.6031  138.5186  162.4743 C.ar    1  UNL1        0.0145
@<TRIPOS>BOND
     1    12    13    1
     2    13    14   ar
     3    14    15   ar
     4    15    18    1
     5    18    19   am
     6    18    20    2
     7    15    16   ar
     8    16     6    1
     9     6     7   ar
    10     7     8   ar
    11     8     9   ar
    12     9    10   ar
    13    10     5    1
    14     5     1    1
    15     1     2    2
    16     1     3   am
    17     3    23    1
    18    23    24    1
    19    24    25    1
    20    25    26    1
    21    26    27    1
    22    27    28    1
    23    28    29    1
    24    29    32    1
    25    32    33   ar
    26    33    34   ar
    27    34    35   ar
    28    35    36   ar
    29    36    37   ar
    30    29    30    1
    31    30    31    1
    32    10    11   ar
    33    16    17   ar
    34    17    13   ar
    35    11     6   ar
    36    31    26    1
    37    37    32   ar
    38    19    21    1
    39    19    22    1
    40     3     4    1
@<TRIPOS>MOLECULE
*****
 37 40 0 0 0
SMALL
GASTEIGER

@<TRIPOS>ATOM
      1 C         142.3187  138.7833  163.5513 C.2     1  UNL1        0.4062
      2 O         142.2551  138.1866  164.9261 O.2     1  UNL1       -0.2260
      3 N         141.2350  138.4911  162.5562 N.am    1  UNL1       -0.2703
      4 H         141.2767  138.8827  161.6538 H       1  UNL1        0.1527
      5 O         143.4658  139.6720  163.1717 O.3     1  UNL1       -0.4103
      6 C         142.5297  143.4237  162.2782 C.ar    1  UNL1        0.0377
      7 C         143.0498  144.1416  163.4882 C.ar    1  UNL1        0.0032
      8 C         143.7085  143.3696  164.5927 C.ar    1  UNL1        0.0032
      9 C         143.8472  141.8797  164.4872 C.ar    1  UNL1        0.0377
     10 C         143.3271  141.1619  163.2772 C.ar    1  UNL1        0.1501
     11 C         142.6683  141.9339  162.1727 C.ar    1  UNL1        0.0407
     12 C         141.6673  145.8488  157.6677 C.3     1  UNL1        0.0725
     13 C         141.4744  145.3104  159.0544 C.ar    1  UNL1        0.1234
     14 C         140.2396  145.4570  159.8934 C.ar    1  UNL1        0.0405
     15 C         140.4846  144.7681  161.2031 C.ar    1  UNL1        0.0903
     16 C         141.8709  144.1957  161.1736 C.ar    1  UNL1        0.1492
     17 O         142.4826  144.5309  159.8457 O.2     1  UNL1       -0.4576
     18 C         139.5139  144.6689  162.3422 C.2     1  UNL1        0.2458
     19 N         139.8212  145.3365  163.6498 N.am    1  UNL1       -0.3252
     20 O         138.2357  143.9021  162.1739 O.2     1  UNL1       -0.2703
     21 H         140.6600  145.8398  163.7604 H       1  UNL1        0.1453
     22 H         139.1840  145.2714  164.3975 H       1  UNL1        0.1453
     23 C         140.0879  137.6023  162.9358 C.3     1  UNL1        0.0941
     24 C         138.6777  138.0868  162.7725 C.3     1  UNL1        0.0387
     25 C         138.2983  139.4613  163.2379 C.3     1  UNL1        0.0740
     26 N         139.0110  140.0821  164.4027 N.3     1  UNL1       -0.2697
     27 C         139.0574  139.3677  165.7209 C.3     1  UNL1        0.0938
     28 C         139.7700  139.9885  166.8857 C.3     1  UNL1        0.1081
     29 N         140.4363  141.3236  166.7323 N.pl3   1  UNL1       -0.3046
     30 C         140.3899  142.0380  165.4141 C.3     1  UNL1        0.1081
     31 C         139.6773  141.4172  164.2493 C.3     1  UNL1        0.0938
     32 C         141.1490  141.9444  167.8970 C.ar    1  UNL1        0.0479
     33 C         142.5988  141.6428  168.1366 C.ar    1  UNL1        0.0145
     34 C         143.3115  142.2635  169.3014 C.ar    1  UNL1        0.0013
     35 C         142.5744  143.1859  170.2266 C.ar    1  UNL1        0.0001
     36 C         141.1247  143.4875  169.9870 C.ar    1  UNL1        0.0013
     37 C         140.4120  142.8668  168.8222 C.ar    1  UNL1        0.0145
@<TRIPOS>BOND
     1    12    13    1
     2    13    14   ar
     3    14    15   ar
     4    15    18    1
     5    18    19   am
     6    18    20    2
     7    15    16   ar
     8    16     6    1
     9     6     7   ar
    10     7     8   ar
    11     8     9   ar
    12     9    10   ar
    13    10     5    1
    14     5     1    1
    15     1     2    2
    16     1     3   am
    17     3    23    1
    18    23    24    1
    19    24    25    1
    20    25    26    1
    21    26    27    1
    22    27    28    1
    23    28    29    1
    24    29    32    1
    25    32    33   ar
    26    33    34   ar
    27    34    35   ar
    28    35    36   ar
    29    36    37   ar
    30    29    30    1
    31    30    31    1
    32    10    11   ar
    33    16    17   ar
    34    17    13   ar
    35    11     6   ar
    36    31    26    1
    37    37    32   ar
    38    19    21    1
    39    19    22    1
    40     3     4    1
@<TRIPOS>MOLECULE
*****
 37 40 0 0 0
SMALL
GASTEIGER

@<TRIPOS>ATOM
      1 C         143.2491  143.3002  160.2633 C.2     1  UNL1        0.4062
      2 O         142.7471  142.4776  159.1137 O.2     1  UNL1       -0.2260
      3 N         142.4978  144.5252  160.6934 N.am    1  UNL1       -0.2703
      4 H         142.8272  145.0651  161.4479 H       1  UNL1        0.1527
      5 O         144.5021  142.8977  160.9828 O.3     1  UNL1       -0.4103
      6 C         143.1804  139.9841  163.3310 C.ar    1  UNL1        0.0377
      7 C         144.3148  139.8687  164.3055 C.ar    1  UNL1        0.0032
      8 C         145.5117  140.7629  164.1724 C.ar    1  UNL1        0.0032
      9 C         145.5741  141.7726  163.0649 C.ar    1  UNL1        0.0377
     10 C         144.4397  141.8880  162.0904 C.ar    1  UNL1        0.1501
     11 C         143.2428  140.9937  162.2234 C.ar    1  UNL1        0.0407
     12 C         138.8787  137.6048  165.2587 C.3     1  UNL1        0.0725
     13 C         140.0062  137.9962  164.3500 C.ar    1  UNL1        0.1234
     14 C         140.2770  137.4311  162.9871 C.ar    1  UNL1        0.0405
     15 C         141.4990  138.1070  162.4395 C.ar    1  UNL1        0.0903
     16 C         141.9834  139.0898  163.4640 C.ar    1  UNL1        0.1492
     17 O         141.0609  139.0213  164.6447 O.2     1  UNL1       -0.4576
     18 C         142.1263  137.8459  161.1023 C.2     1  UNL1        0.2458
     19 N         143.4560  137.1567  161.0193 N.am    1  UNL1       -0.3252
     20 O         141.4241  138.2741  159.8479 O.2     1  UNL1       -0.2703
     21 H         143.9170  136.8756  161.8426 H       1  UNL1        0.1453
     22 H         143.8677  136.9854  160.1416 H       1  UNL1        0.1453
     23 C         141.2446  144.9277  159.9738 C.3     1  UNL1        0.0941
     24 C         140.1151  145.5603  160.7314 C.3     1  UNL1        0.0387
     25 C         140.3140  145.9892  162.1549 C.3     1  UNL1        0.0740
     26 N         140.5024  144.9594  163.2291 N.3     1  UNL1       -0.2697
     27 C         139.3116  144.2600  163.8148 C.3     1  UNL1        0.0938
     28 C         139.5000  143.2302  164.8890 C.3     1  UNL1        0.1081
     29 N         140.8792  142.8998  165.3777 N.pl3   1  UNL1       -0.3046
     30 C         142.0699  143.5992  164.7921 C.3     1  UNL1        0.1081
     31 C         141.8815  144.6290  163.7178 C.3     1  UNL1        0.0938
     32 C         141.0676  141.8700  166.4519 C.ar    1  UNL1        0.0479
     33 C         142.4421  141.5750  166.9753 C.ar    1  UNL1        0.0145
     34 C         142.6304  140.5452  168.0496 C.ar    1  UNL1        0.0013
     35 C         141.4443  139.8104  168.6005 C.ar    1  UNL1        0.0001
     36 C         140.0700  140.1055  168.0771 C.ar    1  UNL1        0.0013
     37 C         139.8816  141.1353  167.0028 C.ar    1  UNL1        0.0145
@<TRIPOS>BOND
     1    12    13    1
     2    13    14   ar
     3    14    15   ar
     4    15    18    1
     5    18    19   am
     6    18    20    2
     7    15    16   ar
     8    16     6    1
     9     6     7   ar
    10     7     8   ar
    11     8     9   ar
    12     9    10   ar
    13    10     5    1
    14     5     1    1
    15     1     2    2
    16     1     3   am
    17     3    23    1
    18    23    24    1
    19    24    25    1
    20    25    26    1
    21    26    27    1
    22    27    28    1
    23    28    29    1
    24    29    32    1
    25    32    33   ar
    26    33    34   ar
    27    34    35   ar
    28    35    36   ar
    29    36    37   ar
    30    29    30    1
    31    30    31    1
    32    10    11   ar
    33    16    17   ar
    34    17    13   ar
    35    11     6   ar
    36    31    26    1
    37    37    32   ar
    38    19    21    1
    39    19    22    1
    40     3     4    1
@<TRIPOS>MOLECULE
*****
 37 40 0 0 0
SMALL
GASTEIGER

@<TRIPOS>ATOM
      1 C         138.0374  143.0951  162.1319 C.2     1  UNL1        0.4062
      2 O         137.4676  144.4062  162.5862 O.2     1  UNL1       -0.2260
      3 N         139.2563  143.0695  161.2581 N.am    1  UNL1       -0.2703
      4 H         139.6304  142.2090  160.9599 H       1  UNL1        0.1527
      5 O         137.3884  141.8096  162.5515 O.3     1  UNL1       -0.4103
      6 C         140.2223  139.0998  163.1646 C.ar    1  UNL1        0.0377
      7 C         139.6983  137.9528  162.3523 C.ar    1  UNL1        0.0032
      8 C         138.4043  138.0914  161.6064 C.ar    1  UNL1        0.0032
      9 C         137.6344  139.3770  161.6728 C.ar    1  UNL1        0.0377
     10 C         138.1583  140.5240  162.4851 C.ar    1  UNL1        0.1501
     11 C         139.4523  140.3854  163.2310 C.ar    1  UNL1        0.0407
     12 C         143.7493  138.0325  166.9465 C.3     1  UNL1        0.0725
     13 C         143.1375  138.4706  165.6489 C.ar    1  UNL1        0.1234
     14 C         143.8776  139.0253  164.4680 C.ar    1  UNL1        0.0405
     15 C         142.8757  139.3285  163.3937 C.ar    1  UNL1        0.0903
     16 C         141.5163  138.9612  163.9106 C.ar    1  UNL1        0.1492
     17 O         141.6781  138.4310  165.3044 O.2     1  UNL1       -0.4576
     18 C         143.1797  139.8988  162.0401 C.2     1  UNL1        0.2458
     19 N         144.2978  139.3276  161.2194 N.am    1  UNL1       -0.3252
     20 O         142.3656  141.0404  161.5071 O.2     1  UNL1       -0.2703
     21 H         144.8322  138.5784  161.5691 H       1  UNL1        0.1453
     22 H         144.4973  139.7020  160.3310 H       1  UNL1        0.1453
     23 C         139.9054  144.3551  160.8385 C.3     1  UNL1        0.0941
     24 C         141.3551  144.5963  161.1388 C.3     1  UNL1        0.0387
     25 C         141.7650  145.1257  162.4810 C.3     1  UNL1        0.0740
     26 N         141.7270  144.2304  163.6839 N.3     1  UNL1       -0.2697
     27 C         140.4809  144.1425  164.5144 C.3     1  UNL1        0.0938
     28 C         140.4429  143.2472  165.7173 C.3     1  UNL1        0.1081
     29 N         141.6510  142.4398  166.0898 N.pl3   1  UNL1       -0.3046
     30 C         142.8970  142.5277  165.2593 C.3     1  UNL1        0.1081
     31 C         142.9350  143.4230  164.0564 C.3     1  UNL1        0.0938
     32 C         141.6130  141.5445  167.2927 C.ar    1  UNL1        0.0479
     33 C         142.8093  141.4458  168.1923 C.ar    1  UNL1        0.0145
     34 C         142.7713  140.5505  169.3952 C.ar    1  UNL1        0.0013
     35 C         141.5370  139.7539  169.6985 C.ar    1  UNL1        0.0001
     36 C         140.3408  139.8526  168.7989 C.ar    1  UNL1        0.0013
     37 C         140.3788  140.7479  167.5960 C.ar    1  UNL1        0.0145
@<TRIPOS>BOND
     1    12    13    1
     2    13    14   ar
     3    14    15   ar
     4    15    18    1
     5    18    19   am
     6    18    20    2
     7    15    16   ar
     8    16     6    1
     9     6     7   ar
    10     7     8   ar
    11     8     9   ar
    12     9    10   ar
    13    10     5    1
    14     5     1    1
    15     1     2    2
    16     1     3   am
    17     3    23    1
    18    23    24    1
    19    24    25    1
    20    25    26    1
    21    26    27    1
    22    27    28    1
    23    28    29    1
    24    29    32    1
    25    32    33   ar
    26    33    34   ar
    27    34    35   ar
    28    35    36   ar
    29    36    37   ar
    30    29    30    1
    31    30    31    1
    32    10    11   ar
    33    16    17   ar
    34    17    13   ar
    35    11     6   ar
    36    31    26    1
    37    37    32   ar
    38    19    21    1
    39    19    22    1
    40     3     4    1
@<TRIPOS>MOLECULE
*****
 37 40 0 0 0
SMALL
GASTEIGER

@<TRIPOS>ATOM
      1 C         140.2736  144.3993  159.9876 C.2     1  UNL1        0.4062
      2 O         141.6030  145.0939  160.0103 O.2     1  UNL1       -0.2260
      3 N         139.9471  143.4407  158.8810 N.am    1  UNL1       -0.2703
      4 H         139.0746  142.9849  158.8661 H       1  UNL1        0.1527
      5 O         139.2709  144.6633  161.0715 O.3     1  UNL1       -0.4103
      6 C         140.9368  142.8578  164.1883 C.ar    1  UNL1        0.0377
      7 C         140.1914  143.5006  165.3201 C.ar    1  UNL1        0.0032
      8 C         139.1392  144.5311  165.0357 C.ar    1  UNL1        0.0032
      9 C         138.8323  144.9186  163.6195 C.ar    1  UNL1        0.0377
     10 C         139.5777  144.2757  162.4877 C.ar    1  UNL1        0.1501
     11 C         140.6300  143.2453  162.7721 C.ar    1  UNL1        0.0407
     12 C         143.3093  138.3789  165.6690 C.3     1  UNL1        0.0725
     13 C         143.0796  139.7686  165.1533 C.ar    1  UNL1        0.1234
     14 C         144.1374  140.7147  164.6673 C.ar    1  UNL1        0.0405
     15 C         143.4634  141.9870  164.2467 C.ar    1  UNL1        0.0903
     16 C         141.9892  141.8273  164.4727 C.ar    1  UNL1        0.1492
     17 O         141.7520  140.4563  165.0330 O.2     1  UNL1       -0.4576
     18 C         144.1442  143.2052  163.6966 C.2     1  UNL1        0.2458
     19 N         144.9166  143.1178  162.4138 N.am    1  UNL1       -0.3252
     20 O         144.0526  144.5108  164.4294 O.2     1  UNL1       -0.2703
     21 H         144.9768  142.2609  161.9328 H       1  UNL1        0.1453
     22 H         145.3634  143.9174  162.0528 H       1  UNL1        0.1453
     23 C         140.9499  143.1768  157.7971 C.3     1  UNL1        0.0941
     24 C         141.0609  141.8072  157.1954 C.3     1  UNL1        0.0387
     25 C         140.0345  140.7616  157.5164 C.3     1  UNL1        0.0740
     26 N         139.7581  140.3954  158.9445 N.3     1  UNL1       -0.2697
     27 C         138.3431  140.2849  159.4300 C.3     1  UNL1        0.0938
     28 C         138.0666  139.9188  160.8581 C.3     1  UNL1        0.1081
     29 N         139.2051  139.6632  161.8008 N.pl3   1  UNL1       -0.3046
     30 C         140.6201  139.7737  161.3153 C.3     1  UNL1        0.1081
     31 C         140.8965  140.1399  159.8871 C.3     1  UNL1        0.0938
     32 C         138.9287  139.2971  163.2289 C.ar    1  UNL1        0.0479
     33 C         139.2103  137.9060  163.7145 C.ar    1  UNL1        0.0145
     34 C         138.9339  137.5399  165.1427 C.ar    1  UNL1        0.0013
     35 C         138.3758  138.5648  166.0851 C.ar    1  UNL1        0.0001
     36 C         138.0941  139.9557  165.5994 C.ar    1  UNL1        0.0013
     37 C         138.3706  140.3219  164.1713 C.ar    1  UNL1        0.0145
@<TRIPOS>BOND
     1    12    13    1
     2    13    14   ar
     3    14    15   ar
     4    15    18    1
     5    18    19   am
     6    18    20    2
     7    15    16   ar
     8    16     6    1
     9     6     7   ar
    10     7     8   ar
    11     8     9   ar
    12     9    10   ar
    13    10     5    1
    14     5     1    1
    15     1     2    2
    16     1     3   am
    17     3    23    1
    18    23    24    1
    19    24    25    1
    20    25    26    1
    21    26    27    1
    22    27    28    1
    23    28    29    1
    24    29    32    1
    25    32    33   ar
    26    33    34   ar
    27    34    35   ar
    28    35    36   ar
    29    36    37   ar
    30    29    30    1
    31    30    31    1
    32    10    11   ar
    33    16    17   ar
    34    17    13   ar
    35    11     6   ar
    36    31    26    1
    37    37    32   ar
    38    19    21    1
    39    19    22    1
    40     3     4    1
@<TRIPOS>MOLECULE
*****
 37 40 0 0 0
SMALL
GASTEIGER

@<TRIPOS>ATOM
      1 C         140.3363  145.5028  162.1111 C.2     1  UNL1        0.4062
      2 O         138.8364  145.4811  162.1198 O.2     1  UNL1       -0.2260
      3 N         141.0786  145.5172  160.8077 N.am    1  UNL1       -0.2703
      4 H         142.0630  145.5314  160.8020 H       1  UNL1        0.1527
      5 O         141.0938  145.5102  163.4058 O.3     1  UNL1       -0.4103
      6 C         143.0416  142.3973  164.9108 C.ar    1  UNL1        0.0377
      7 C         144.3259  142.4663  164.1390 C.ar    1  UNL1        0.0032
      8 C         144.5328  143.5500  163.1227 C.ar    1  UNL1        0.0032
      9 C         143.4555  144.5646  162.8783 C.ar    1  UNL1        0.0377
     10 C         142.1712  144.4956  163.6502 C.ar    1  UNL1        0.1501
     11 C         141.9642  143.4119  164.6664 C.ar    1  UNL1        0.0407
     12 C         141.7655  139.8694  169.3676 C.3     1  UNL1        0.0725
     13 C         142.2481  140.1516  167.9756 C.ar    1  UNL1        0.1234
     14 C         142.7843  139.1402  167.0063 C.ar    1  UNL1        0.0405
     15 C         143.1468  139.8583  165.7403 C.ar    1  UNL1        0.0903
     16 C         142.8347  141.3136  165.9271 C.ar    1  UNL1        0.1492
     17 O         142.2792  141.4948  167.3086 O.2     1  UNL1       -0.4576
     18 C         143.7207  139.2313  164.5044 C.2     1  UNL1        0.2458
     19 N         142.8090  138.6378  163.4717 N.am    1  UNL1       -0.3252
     20 O         145.2065  139.1978  164.3011 O.2     1  UNL1       -0.2703
     21 H         141.8338  138.6598  163.6051 H       1  UNL1        0.1453
     22 H         143.1857  138.2263  162.6606 H       1  UNL1        0.1453
     23 C         140.3210  145.5097  159.5131 C.3     1  UNL1        0.0941
     24 C         140.6519  144.4979  158.4563 C.3     1  UNL1        0.0387
     25 C         140.0386  143.1301  158.5093 C.3     1  UNL1        0.0740
     26 N         139.8584  142.4396  159.8287 N.3     1  UNL1       -0.2697
     27 C         141.0466  141.8695  160.5453 C.3     1  UNL1        0.0938
     28 C         140.8664  141.1790  161.8646 C.3     1  UNL1        0.1081
     29 N         139.4980  141.0585  162.4674 N.pl3   1  UNL1       -0.3046
     30 C         138.3100  141.6286  161.7508 C.3     1  UNL1        0.1081
     31 C         138.4902  142.3191  160.4315 C.3     1  UNL1        0.0938
     32 C         139.3178  140.3680  163.7868 C.ar    1  UNL1        0.0479
     33 C         139.2113  141.1746  165.0470 C.ar    1  UNL1        0.0145
     34 C         139.0311  140.4840  166.3664 C.ar    1  UNL1        0.0013
     35 C         138.9575  138.9870  166.4255 C.ar    1  UNL1        0.0001
     36 C         139.0640  138.1805  165.1653 C.ar    1  UNL1        0.0013
     37 C         139.2442  138.8710  163.8459 C.ar    1  UNL1        0.0145
@<TRIPOS>BOND
     1    12    13    1
     2    13    14   ar
     3    14    15   ar
     4    15    18    1
     5    18    19   am
     6    18    20    2
     7    15    16   ar
     8    16     6    1
     9     6     7   ar
    10     7     8   ar
    11     8     9   ar
    12     9    10   ar
    13    10     5    1
    14     5     1    1
    15     1     2    2
    16     1     3   am
    17     3    23    1
    18    23    24    1
    19    24    25    1
    20    25    26    1
    21    26    27    1
    22    27    28    1
    23    28    29    1
    24    29    32    1
    25    32    33   ar
    26    33    34   ar
    27    34    35   ar
    28    35    36   ar
    29    36    37   ar
    30    29    30    1
    31    30    31    1
    32    10    11   ar
    33    16    17   ar
    34    17    13   ar
    35    11     6   ar
    36    31    26    1
    37    37    32   ar
    38    19    21    1
    39    19    22    1
    40     3     4    1
@<TRIPOS>MOLECULE
*****
 37 40 0 0 0
SMALL
GASTEIGER

@<TRIPOS>ATOM
      1 C         143.0959  144.3780  161.3977 C.2     1  UNL1        0.4062
      2 O         143.1460  143.6010  160.1155 O.2     1  UNL1       -0.2260
      3 N         141.9310  145.2786  161.6838 N.am    1  UNL1       -0.2703
      4 H         141.8980  145.7885  162.5253 H       1  UNL1        0.1527
      5 O         144.2105  144.2542  162.3938 O.3     1  UNL1       -0.4103
      6 C         143.6247  141.4493  165.1396 C.ar    1  UNL1        0.0377
      7 C         144.6936  140.4638  164.7707 C.ar    1  UNL1        0.0032
      8 C         145.6015  140.7417  163.6095 C.ar    1  UNL1        0.0032
      9 C         145.4404  142.0052  162.8172 C.ar    1  UNL1        0.0377
     10 C         144.3715  142.9907  163.1861 C.ar    1  UNL1        0.1501
     11 C         143.4636  142.7128  164.3473 C.ar    1  UNL1        0.0407
     12 C         140.3254  142.1197  169.2073 C.3     1  UNL1        0.0725
     13 C         141.2002  141.4795  168.1705 C.ar    1  UNL1        0.1234
     14 C         141.4389  140.0079  168.0049 C.ar    1  UNL1        0.0405
     15 C         142.3761  139.8175  166.8494 C.ar    1  UNL1        0.0903
     16 C         142.7167  141.1714  166.3008 C.ar    1  UNL1        0.1492
     17 O         141.9899  142.1986  167.1173 O.2     1  UNL1       -0.4576
     18 C         142.8836  138.5038  166.3331 C.2     1  UNL1        0.2458
     19 N         144.0172  137.8115  167.0299 N.am    1  UNL1       -0.3252
     20 O         142.2576  137.8824  165.1199 O.2     1  UNL1       -0.2703
     21 H         144.4282  138.2193  167.8261 H       1  UNL1        0.1453
     22 H         144.3503  136.9493  166.6910 H       1  UNL1        0.1453
     23 C         140.8163  145.4024  160.6877 C.3     1  UNL1        0.0941
     24 C         139.5025  145.9960  161.1022 C.3     1  UNL1        0.0387
     25 C         138.9676  145.7448  162.4808 C.3     1  UNL1        0.0740
     26 N         138.8862  144.3436  163.0099 N.3     1  UNL1       -0.2697
     27 C         139.7546  143.9240  164.1588 C.3     1  UNL1        0.0938
     28 C         139.6731  142.5228  164.6879 C.3     1  UNL1        0.1081
     29 N         138.7232  141.5411  164.0681 N.pl3   1  UNL1       -0.3046
     30 C         137.8549  141.9607  162.9192 C.3     1  UNL1        0.1081
     31 C         137.9364  143.3619  162.3901 C.3     1  UNL1        0.0938
     32 C         138.6418  140.1399  164.5972 C.ar    1  UNL1        0.0479
     33 C         138.1803  139.8948  166.0033 C.ar    1  UNL1        0.0145
     34 C         138.0988  138.4936  166.5324 C.ar    1  UNL1        0.0013
     35 C         138.4788  137.3374  165.6554 C.ar    1  UNL1        0.0001
     36 C         138.9403  137.5826  164.2493 C.ar    1  UNL1        0.0013
     37 C         139.0217  138.9838  163.7203 C.ar    1  UNL1        0.0145
@<TRIPOS>BOND
     1    12    13    1
     2    13    14   ar
     3    14    15   ar
     4    15    18    1
     5    18    19   am
     6    18    20    2
     7    15    16   ar
     8    16     6    1
     9     6     7   ar
    10     7     8   ar
    11     8     9   ar
    12     9    10   ar
    13    10     5    1
    14     5     1    1
    15     1     2    2
    16     1     3   am
    17     3    23    1
    18    23    24    1
    19    24    25    1
    20    25    26    1
    21    26    27    1
    22    27    28    1
    23    28    29    1
    24    29    32    1
    25    32    33   ar
    26    33    34   ar
    27    34    35   ar
    28    35    36   ar
    29    36    37   ar
    30    29    30    1
    31    30    31    1
    32    10    11   ar
    33    16    17   ar
    34    17    13   ar
    35    11     6   ar
    36    31    26    1
    37    37    32   ar
    38    19    21    1
    39    19    22    1
    40     3     4    1
@<TRIPOS>MOLECULE
*****
 37 40 0 0 0
SMALL
GASTEIGER

@<TRIPOS>ATOM
      1 C         143.4975  139.1244  161.3352 C.2     1  UNL1        0.4062
      2 O         143.8990  137.7027  161.5951 O.2     1  UNL1       -0.2260
      3 N         142.1100  139.4367  160.8583 N.am    1  UNL1       -0.2703
      4 H         141.8465  140.3698  160.6878 H       1  UNL1        0.1527
      5 O         144.4834  140.2338  161.5522 O.3     1  UNL1       -0.4103
      6 C         142.6844  142.9428  163.8270 C.ar    1  UNL1        0.0377
      7 C         143.7784  143.2671  164.8006 C.ar    1  UNL1        0.0032
      8 C         145.1074  142.5803  164.6914 C.ar    1  UNL1        0.0032
      9 C         145.3424  141.5692  163.6086 C.ar    1  UNL1        0.0377
     10 C         144.2484  141.2449  162.6350 C.ar    1  UNL1        0.1501
     11 C         142.9194  141.9317  162.7442 C.ar    1  UNL1        0.0407
     12 C         138.2431  145.0018  165.8062 C.3     1  UNL1        0.0725
     13 C         139.3139  144.5761  164.8458 C.ar    1  UNL1        0.1234
     14 C         139.3062  144.7970  163.3622 C.ar    1  UNL1        0.0405
     15 C         140.5679  144.2121  162.8000 C.ar    1  UNL1        0.0903
     16 C         141.3553  143.6297  163.9361 C.ar    1  UNL1        0.1492
     17 O         140.5803  143.8546  165.2005 O.2     1  UNL1       -0.4576
     18 C         140.9713  144.2100  161.3552 C.2     1  UNL1        0.2458
     19 N         141.9125  145.2570  160.8378 N.am    1  UNL1       -0.3252
     20 O         140.4335  143.1608  160.4279 O.2     1  UNL1       -0.2703
     21 H         142.2655  145.9457  161.4464 H       1  UNL1        0.1453
     22 H         142.1773  145.2556  159.8896 H       1  UNL1        0.1453
     23 C         141.1241  138.3272  160.6413 C.3     1  UNL1        0.0941
     24 C         139.8555  138.2842  161.4406 C.3     1  UNL1        0.0387
     25 C         139.8677  137.7396  162.8381 C.3     1  UNL1        0.0740
     26 N         140.2519  138.6264  163.9853 N.3     1  UNL1       -0.2697
     27 C         139.2172  139.4876  164.6468 C.3     1  UNL1        0.0938
     28 C         139.6015  140.3744  165.7940 C.3     1  UNL1        0.1081
     29 N         141.0205  140.3999  166.2796 N.pl3   1  UNL1       -0.3046
     30 C         142.0552  139.5387  165.6181 C.3     1  UNL1        0.1081
     31 C         141.6709  138.6519  164.4709 C.3     1  UNL1        0.0938
     32 C         141.4048  141.2867  167.4268 C.ar    1  UNL1        0.0479
     33 C         142.8429  141.4000  167.8381 C.ar    1  UNL1        0.0145
     34 C         143.2272  142.2868  168.9852 C.ar    1  UNL1        0.0013
     35 C         142.1734  143.0602  169.7211 C.ar    1  UNL1        0.0001
     36 C         140.7354  142.9468  169.3098 C.ar    1  UNL1        0.0013
     37 C         140.3511  142.0600  168.1626 C.ar    1  UNL1        0.0145
@<TRIPOS>BOND
     1    12    13    1
     2    13    14   ar
     3    14    15   ar
     4    15    18    1
     5    18    19   am
     6    18    20    2
     7    15    16   ar
     8    16     6    1
     9     6     7   ar
    10     7     8   ar
    11     8     9   ar
    12     9    10   ar
    13    10     5    1
    14     5     1    1
    15     1     2    2
    16     1     3   am
    17     3    23    1
    18    23    24    1
    19    24    25    1
    20    25    26    1
    21    26    27    1
    22    27    28    1
    23    28    29    1
    24    29    32    1
    25    32    33   ar
    26    33    34   ar
    27    34    35   ar
    28    35    36   ar
    29    36    37   ar
    30    29    30    1
    31    30    31    1
    32    10    11   ar
    33    16    17   ar
    34    17    13   ar
    35    11     6   ar
    36    31    26    1
    37    37    32   ar
    38    19    21    1
    39    19    22    1
    40     3     4    1
