@<TRIPOS>MOLECULE
*****
 34 37 0 0 0
SMALL
GASTEIGER

@<TRIPOS>ATOM
      1 C         138.0981  140.3954  162.6593 C.3     1  UNL1        0.1166
      2 N         136.9230  141.2508  163.0296 N.3     1  UNL1       -0.3162
      3 C         139.2966  139.5057  162.8082 C.3     1  UNL1        0.0739
      4 C         140.0198  139.0117  161.5906 C.3     1  UNL1        0.2039
      5 N         139.5446  139.4072  160.2238 N.pl3   1  UNL1       -0.1931
      6 C         138.3461  140.2969  160.0749 C.3     1  UNL1        0.2039
      7 C         137.6229  140.7909  161.2927 C.3     1  UNL1        0.0739
      8 H         136.8331  141.2839  164.0451 H       1  UNL1        0.1192
      9 H         136.0739  140.8553  162.6259 H       1  UNL1        0.1192
     10 C         140.2679  138.9131  159.0062 C.2     1  UNL1        0.3205
     11 N         139.5786  137.9866  158.0488 N.2     1  UNL1        0.0097
     12 C         140.3018  137.4925  156.8312 C.2     1  UNL1        0.4717
     13 N         141.7144  137.9249  156.5708 N.2     1  UNL1        0.0158
     14 C         142.4036  138.8514  157.5281 C.2     1  UNL1        0.3714
     15 N         143.7812  139.4449  157.5345 N.2     1  UNL1       -0.0339
     16 C         143.9093  140.3058  158.7561 C.2     1  UNL1        0.2323
     17 C         142.6110  140.2444  159.5048 C.2     1  UNL1        0.0486
     18 C         141.6804  139.3455  158.7458 C.3     1  UNL1        0.2428
     19 N         138.4131  138.9698  164.8082 N.am    1  UNL1       -0.3012
     20 C         138.1652  140.2969  164.1545 C.2     1  UNL1        0.2352
     21 O         137.9845  141.5254  164.9960 O.2     1  UNL1       -0.2737
     22 H         138.5318  138.1635  164.2559 H       1  UNL1        0.1497
     23 C         138.4803  138.8712  166.3035 C.3     1  UNL1        0.0943
     24 C         137.3598  138.2257  167.0636 C.3     1  UNL1        0.0262
     25 C         142.0433  140.5118  168.5087 C.ar    1  UNL1        0.1724
     26 C         142.2188  139.8985  167.1512 C.ar    1  UNL1        0.0398
     27 C         141.0311  139.3516  166.4161 C.ar    1  UNL1        0.0006
     28 C         139.6680  139.4181  167.0386 C.ar    1  UNL1       -0.0013
     29 C         139.4925  140.0314  168.3962 C.ar    1  UNL1        0.0374
     30 C         140.6802  140.5783  169.1313 C.ar    1  UNL1        0.1721
     31 C         143.5230  142.5295  169.2082 C.3     1  UNL1        0.2526
     32 O         143.2310  141.0587  169.2438 O.3     1  UNL1       -0.4684
     33 O         140.5047  141.1917  170.4888 O.3     1  UNL1       -0.4684
     34 C         140.0356  142.6107  170.6157 C.3     1  UNL1        0.2526
@<TRIPOS>BOND
     1    31    32    1
     2    32    25    1
     3    25    26   ar
     4    26    27   ar
     5    27    28   ar
     6    28    23    1
     7    23    24    1
     8    23    19    1
     9    19    20   am
    10    20    21    2
    11    20     1    1
    12     1     2    1
    13     1     3    1
    14     3     4    1
    15     4     5    1
    16     5    10    1
    17    10    11    2
    18    11    12    1
    19    12    13    2
    20    13    14    1
    21    14    15    2
    22    15    16    1
    23    16    17    2
    24    17    18    1
    25     5     6    1
    26     6     7    1
    27    28    29   ar
    28    29    30   ar
    29    30    33    1
    30    33    34    1
    31    30    25   ar
    32     7     1    1
    33    18    10    1
    34    18    14    1
    35    19    22    1
    36     2     8    1
    37     2     9    1
@<TRIPOS>MOLECULE
*****
 34 37 0 0 0
SMALL
GASTEIGER

@<TRIPOS>ATOM
      1 C         143.8518  141.0761  163.1086 C.3     1  UNL1        0.1166
      2 N         144.9545  140.3239  162.4246 N.3     1  UNL1       -0.3162
      3 C         142.8346  142.1430  163.3865 C.3     1  UNL1        0.0739
      4 C         141.9539  142.0427  164.5965 C.3     1  UNL1        0.2039
      5 N         142.0904  140.8755  165.5288 N.pl3   1  UNL1       -0.1931
      6 C         143.1075  139.8086  165.2510 C.3     1  UNL1        0.2039
      7 C         143.9882  139.9090  164.0409 C.3     1  UNL1        0.0739
      8 H         145.2403  140.8281  161.5853 H       1  UNL1        0.1192
      9 H         144.6229  139.3945  162.1665 H       1  UNL1        0.1192
     10 C         141.2096  140.7752  166.7389 C.2     1  UNL1        0.3205
     11 N         141.5396  141.5601  167.9738 N.2     1  UNL1        0.0097
     12 C         140.6590  141.4599  169.1838 C.2     1  UNL1        0.4717
     13 N         139.4482  140.5747  169.1590 N.2     1  UNL1        0.0158
     14 C         139.1182  139.7898  167.9241 C.2     1  UNL1        0.3714
     15 N         138.0000  138.8418  167.6064 N.2     1  UNL1       -0.0339
     16 C         138.1897  138.3562  166.1999 C.2     1  UNL1        0.2323
     17 C         139.4250  139.0040  165.6484 C.2     1  UNL1        0.0486
     18 C         139.9989  139.8901  166.7141 C.3     1  UNL1        0.2428
     19 N         143.5180  141.6482  160.5965 N.am    1  UNL1       -0.3012
     20 C         144.0983  141.9820  161.9388 C.2     1  UNL1        0.2352
     21 O         144.9250  143.2217  162.1113 O.2     1  UNL1       -0.2737
     22 H         142.9754  140.8346  160.4833 H       1  UNL1        0.1497
     23 C         143.7644  142.5541  159.4266 C.3     1  UNL1        0.0943
     24 C         145.0429  142.4448  158.6496 C.3     1  UNL1        0.0262
     25 C         140.6685  145.5996  158.2479 C.ar    1  UNL1        0.1724
     26 C         141.6933  145.1472  157.2503 C.ar    1  UNL1        0.0398
     27 C         142.7253  144.1321  157.6432 C.ar    1  UNL1        0.0006
     28 C         142.7324  143.5693  159.0337 C.ar    1  UNL1       -0.0013
     29 C         141.7076  144.0217  160.0312 C.ar    1  UNL1        0.0374
     30 C         140.6756  145.0369  159.6382 C.ar    1  UNL1        0.1721
     31 C         139.3770  146.8980  156.4049 C.3     1  UNL1        0.2526
     32 O         139.6364  146.6149  157.8549 O.3     1  UNL1       -0.4684
     33 O         139.6507  145.4893  160.6358 O.3     1  UNL1       -0.4684
     34 C         140.0863  146.0390  161.9617 C.3     1  UNL1        0.2526
@<TRIPOS>BOND
     1    31    32    1
     2    32    25    1
     3    25    26   ar
     4    26    27   ar
     5    27    28   ar
     6    28    23    1
     7    23    24    1
     8    23    19    1
     9    19    20   am
    10    20    21    2
    11    20     1    1
    12     1     2    1
    13     1     3    1
    14     3     4    1
    15     4     5    1
    16     5    10    1
    17    10    11    2
    18    11    12    1
    19    12    13    2
    20    13    14    1
    21    14    15    2
    22    15    16    1
    23    16    17    2
    24    17    18    1
    25     5     6    1
    26     6     7    1
    27    28    29   ar
    28    29    30   ar
    29    30    33    1
    30    33    34    1
    31    30    25   ar
    32     7     1    1
    33    18    10    1
    34    18    14    1
    35    19    22    1
    36     2     8    1
    37     2     9    1
@<TRIPOS>MOLECULE
*****
 34 37 0 0 0
SMALL
GASTEIGER

@<TRIPOS>ATOM
      1 C         142.8922  143.6306  164.1235 C.3     1  UNL1        0.1166
      2 N         143.9784  144.4337  163.4717 N.3     1  UNL1       -0.3162
      3 C         141.5653  142.9632  164.3338 C.3     1  UNL1        0.0739
      4 C         141.3086  142.1835  165.5891 C.3     1  UNL1        0.2039
      5 N         142.3787  142.0709  166.6343 N.pl3   1  UNL1       -0.1931
      6 C         143.7056  142.7382  166.4240 C.3     1  UNL1        0.2039
      7 C         143.9623  143.5180  165.1686 C.3     1  UNL1        0.0739
      8 H         143.6508  144.7799  162.5699 H       1  UNL1        0.1192
      9 H         144.7995  143.8449  163.3320 H       1  UNL1        0.1192
     10 C         142.1220  141.2911  167.8897 C.2     1  UNL1        0.3205
     11 N         142.6929  139.9129  168.0465 N.2     1  UNL1        0.0097
     12 C         142.4361  139.1331  169.3018 C.2     1  UNL1        0.4717
     13 N         141.6084  139.7314  170.4004 N.2     1  UNL1        0.0158
     14 C         141.0375  141.1096  170.2436 C.2     1  UNL1        0.3714
     15 N         140.1901  141.9539  171.1487 N.2     1  UNL1       -0.0339
     16 C         139.9232  143.2556  170.4527 C.2     1  UNL1        0.2323
     17 C         140.6056  143.2157  169.1174 C.2     1  UNL1        0.0486
     18 C         141.2942  141.8894  168.9882 C.3     1  UNL1        0.2428
     19 N         140.7048  144.1459  162.8200 N.am    1  UNL1       -0.3012
     20 C         142.1993  144.0220  162.8521 C.2     1  UNL1        0.2352
     21 O         143.0008  144.2896  161.6127 O.2     1  UNL1       -0.2737
     22 H         140.1787  143.9703  163.6335 H       1  UNL1        0.1497
     23 C         140.0118  144.5374  161.5486 C.3     1  UNL1        0.0943
     24 C         139.8566  145.9868  161.1946 C.3     1  UNL1        0.0262
     25 C         138.3983  141.3638  158.7964 C.ar    1  UNL1        0.1724
     26 C         139.1584  142.5284  158.2342 C.ar    1  UNL1        0.0398
     27 C         139.6962  143.5862  159.1516 C.ar    1  UNL1        0.0006
     28 C         139.4739  143.4796  160.6312 C.ar    1  UNL1       -0.0013
     29 C         138.7139  142.3150  161.1934 C.ar    1  UNL1        0.0374
     30 C         138.1760  141.2571  160.2759 C.ar    1  UNL1        0.1721
     31 C         138.4395  140.1395  156.5053 C.3     1  UNL1        0.2526
     32 O         137.8605  140.3059  157.8789 O.3     1  UNL1       -0.4684
     33 O         137.4160  140.0925  160.8382 O.3     1  UNL1       -0.4684
     34 C         138.0572  139.2015  161.8604 C.3     1  UNL1        0.2526
@<TRIPOS>BOND
     1    31    32    1
     2    32    25    1
     3    25    26   ar
     4    26    27   ar
     5    27    28   ar
     6    28    23    1
     7    23    24    1
     8    23    19    1
     9    19    20   am
    10    20    21    2
    11    20     1    1
    12     1     2    1
    13     1     3    1
    14     3     4    1
    15     4     5    1
    16     5    10    1
    17    10    11    2
    18    11    12    1
    19    12    13    2
    20    13    14    1
    21    14    15    2
    22    15    16    1
    23    16    17    2
    24    17    18    1
    25     5     6    1
    26     6     7    1
    27    28    29   ar
    28    29    30   ar
    29    30    33    1
    30    33    34    1
    31    30    25   ar
    32     7     1    1
    33    18    10    1
    34    18    14    1
    35    19    22    1
    36     2     8    1
    37     2     9    1
@<TRIPOS>MOLECULE
*****
 34 37 0 0 0
SMALL
GASTEIGER

@<TRIPOS>ATOM
      1 C         139.8888  138.0331  161.3038 C.3     1  UNL1        0.1166
      2 N         138.4181  138.0147  161.5981 N.3     1  UNL1       -0.3162
      3 C         141.3714  137.9754  161.5247 C.3     1  UNL1        0.0739
      4 C         142.3091  138.1302  160.3643 C.3     1  UNL1        0.2039
      5 N         141.7643  138.3426  158.9828 N.pl3   1  UNL1       -0.1931
      6 C         140.2818  138.4002  158.7619 C.3     1  UNL1        0.2039
      7 C         139.3441  138.2454  159.9224 C.3     1  UNL1        0.0739
      8 H         138.2731  137.8702  162.5973 H       1  UNL1        0.1192
      9 H         137.9766  137.2569  161.0774 H       1  UNL1        0.1192
     10 C         142.7021  138.4973  157.8224 C.2     1  UNL1        0.3205
     11 N         143.2555  139.8489  157.4804 N.2     1  UNL1        0.0097
     12 C         144.1933  140.0037  156.3201 C.2     1  UNL1        0.4717
     13 N         144.5777  138.8068  155.5016 N.2     1  UNL1        0.0158
     14 C         144.0243  137.4553  155.8435 C.2     1  UNL1        0.3714
     15 N         144.2214  136.1038  155.2233 N.2     1  UNL1       -0.0339
     16 C         143.4053  135.1138  156.0004 C.2     1  UNL1        0.2323
     17 C         142.7039  135.8534  157.1009 C.2     1  UNL1        0.0486
     18 C         143.0865  137.3005  157.0040 C.3     1  UNL1        0.2428
     19 N         139.0196  138.6089  163.6834 N.am    1  UNL1       -0.3012
     20 C         139.9228  137.8143  162.7873 C.2     1  UNL1        0.2352
     21 O         140.8600  136.8011  163.3748 O.2     1  UNL1       -0.2737
     22 H         138.4045  139.2739  163.2978 H       1  UNL1        0.1497
     23 C         139.0536  138.3902  165.1670 C.3     1  UNL1        0.0943
     24 C         138.3223  137.2279  165.7707 C.3     1  UNL1        0.0262
     25 C         141.3493  141.2208  167.8065 C.ar    1  UNL1        0.1724
     26 C         140.0076  140.7106  168.2420 C.ar    1  UNL1        0.0398
     27 C         139.2424  139.7671  167.3622 C.ar    1  UNL1        0.0006
     28 C         139.8188  139.3337  166.0469 C.ar    1  UNL1       -0.0013
     29 C         141.1605  139.8439  165.6114 C.ar    1  UNL1        0.0374
     30 C         141.9258  140.7875  166.4913 C.ar    1  UNL1        0.1721
     31 C         143.2070  141.6441  169.5728 C.3     1  UNL1        0.2526
     32 O         142.1145  142.1644  168.6865 O.3     1  UNL1       -0.4684
     33 O         143.2675  141.2976  166.0559 O.3     1  UNL1       -0.4684
     34 C         143.3874  142.6584  165.4363 C.3     1  UNL1        0.2526
@<TRIPOS>BOND
     1    31    32    1
     2    32    25    1
     3    25    26   ar
     4    26    27   ar
     5    27    28   ar
     6    28    23    1
     7    23    24    1
     8    23    19    1
     9    19    20   am
    10    20    21    2
    11    20     1    1
    12     1     2    1
    13     1     3    1
    14     3     4    1
    15     4     5    1
    16     5    10    1
    17    10    11    2
    18    11    12    1
    19    12    13    2
    20    13    14    1
    21    14    15    2
    22    15    16    1
    23    16    17    2
    24    17    18    1
    25     5     6    1
    26     6     7    1
    27    28    29   ar
    28    29    30   ar
    29    30    33    1
    30    33    34    1
    31    30    25   ar
    32     7     1    1
    33    18    10    1
    34    18    14    1
    35    19    22    1
    36     2     8    1
    37     2     9    1
@<TRIPOS>MOLECULE
*****
 34 37 0 0 0
SMALL
GASTEIGER

@<TRIPOS>ATOM
      1 C         139.7074  138.5829  162.7139 C.3     1  UNL1        0.1166
      2 N         138.6434  137.5278  162.6454 N.3     1  UNL1       -0.3162
      3 C         140.7097  139.5387  163.2901 C.3     1  UNL1        0.0739
      4 C         141.5201  140.4140  162.3808 C.3     1  UNL1        0.2039
      5 N         141.3282  140.3337  160.8952 N.pl3   1  UNL1       -0.1931
      6 C         140.3259  139.3780  160.3190 C.3     1  UNL1        0.2039
      7 C         139.5155  138.5026  161.2285 C.3     1  UNL1        0.0739
      8 H         138.4069  137.2217  163.5892 H       1  UNL1        0.1192
      9 H         138.9870  136.7331  162.1063 H       1  UNL1        0.1192
     10 C         142.1386  141.2091  159.9858 C.2     1  UNL1        0.3205
     11 N         143.2482  140.6176  159.1681 N.2     1  UNL1        0.0097
     12 C         144.0586  141.4929  158.2588 C.2     1  UNL1        0.4717
     13 N         143.7594  142.9600  158.1672 N.2     1  UNL1        0.0158
     14 C         142.6498  143.5515  158.9849 C.2     1  UNL1        0.3714
     15 N         142.1267  144.9524  159.1026 N.2     1  UNL1       -0.0339
     16 C         140.9929  144.9428  160.0847 C.2     1  UNL1        0.2323
     17 C         140.8154  143.5360  160.5740 C.2     1  UNL1        0.0486
     18 C         141.8394  142.6761  159.8943 C.3     1  UNL1        0.2428
     19 N         138.4702  139.0155  164.9571 N.am    1  UNL1       -0.3012
     20 C         139.5298  138.2968  164.1757 C.2     1  UNL1        0.2352
     21 O         140.4118  137.2922  164.8559 O.2     1  UNL1       -0.2737
     22 H         137.8913  139.6749  164.5106 H       1  UNL1        0.1497
     23 C         138.2926  138.7296  166.4189 C.3     1  UNL1        0.0943
     24 C         137.4994  137.5347  166.8583 C.3     1  UNL1        0.0262
     25 C         140.1394  141.4561  169.4856 C.ar    1  UNL1        0.1724
     26 C         139.0356  140.5208  169.8815 C.ar    1  UNL1        0.0398
     27 C         138.4200  139.6119  168.8592 C.ar    1  UNL1        0.0006
     28 C         138.9082  139.6384  167.4411 C.ar    1  UNL1       -0.0013
     29 C         140.0121  140.5737  167.0452 C.ar    1  UNL1        0.0374
     30 C         140.6277  141.4826  168.0676 C.ar    1  UNL1        0.1721
     31 C         142.0708  142.0080  171.1334 C.3     1  UNL1        0.2526
     32 O         140.7551  142.3650  170.5079 O.3     1  UNL1       -0.4684
     33 O         141.7316  142.4179  167.6717 O.3     1  UNL1       -0.4684
     34 C         142.8251  141.9444  166.7608 C.3     1  UNL1        0.2526
@<TRIPOS>BOND
     1    31    32    1
     2    32    25    1
     3    25    26   ar
     4    26    27   ar
     5    27    28   ar
     6    28    23    1
     7    23    24    1
     8    23    19    1
     9    19    20   am
    10    20    21    2
    11    20     1    1
    12     1     2    1
    13     1     3    1
    14     3     4    1
    15     4     5    1
    16     5    10    1
    17    10    11    2
    18    11    12    1
    19    12    13    2
    20    13    14    1
    21    14    15    2
    22    15    16    1
    23    16    17    2
    24    17    18    1
    25     5     6    1
    26     6     7    1
    27    28    29   ar
    28    29    30   ar
    29    30    33    1
    30    33    34    1
    31    30    25   ar
    32     7     1    1
    33    18    10    1
    34    18    14    1
    35    19    22    1
    36     2     8    1
    37     2     9    1
@<TRIPOS>MOLECULE
*****
 34 37 0 0 0
SMALL
GASTEIGER

@<TRIPOS>ATOM
      1 C         141.5484  144.4944  161.4445 C.3     1  UNL1        0.1166
      2 N         140.6536  145.6970  161.4982 N.3     1  UNL1       -0.3162
      3 C         142.3492  143.3117  161.9028 C.3     1  UNL1        0.0739
      4 C         143.1098  142.4890  160.9055 C.3     1  UNL1        0.2039
      5 N         143.0695  142.8489  159.4498 N.pl3   1  UNL1       -0.1931
      6 C         142.2687  144.0316  158.9915 C.3     1  UNL1        0.2039
      7 C         141.5081  144.8543  159.9889 C.3     1  UNL1        0.0739
      8 H         140.3759  145.8713  162.4641 H       1  UNL1        0.1192
      9 H         139.8230  145.5284  160.9307 H       1  UNL1        0.1192
     10 C         143.8301  142.0262  158.4525 C.2     1  UNL1        0.3205
     11 N         145.0721  142.5772  157.8171 N.2     1  UNL1        0.0097
     12 C         145.8326  141.7546  156.8198 C.2     1  UNL1        0.4717
     13 N         145.3513  140.3807  156.4579 N.2     1  UNL1        0.0158
     14 C         144.1093  139.8297  157.0933 C.2     1  UNL1        0.3714
     15 N         143.3980  138.5185  156.9353 N.2     1  UNL1       -0.0339
     16 C         142.1979  138.5309  157.8350 C.2     1  UNL1        0.2323
     17 C         142.1674  139.8497  158.5490 C.2     1  UNL1        0.0486
     18 C         143.3487  140.6524  158.0906 C.3     1  UNL1        0.2428
     19 N         140.2884  143.6095  163.5372 N.am    1  UNL1       -0.3012
     20 C         141.2779  144.5521  162.9188 C.2     1  UNL1        0.2352
     21 O         141.9969  145.5523  163.7747 O.2     1  UNL1       -0.2737
     22 H         139.8165  142.9530  162.9754 H       1  UNL1        0.1497
     23 C         140.0179  143.6671  165.0115 C.3     1  UNL1        0.0943
     24 C         139.0146  144.6423  165.5523 C.3     1  UNL1        0.0262
     25 C         142.2160  140.9145  167.8116 C.ar    1  UNL1        0.1724
     26 C         141.2300  141.9058  168.3549 C.ar    1  UNL1        0.0398
     27 C         140.4973  142.8233  167.4215 C.ar    1  UNL1        0.0006
     28 C         140.7506  142.7496  165.9449 C.ar    1  UNL1       -0.0013
     29 C         141.7366  141.7583  165.4016 C.ar    1  UNL1        0.0374
     30 C         142.4694  140.8407  166.3351 C.ar    1  UNL1        0.1721
     31 C         142.2304  139.3814  169.9091 C.3     1  UNL1        0.2526
     32 O         142.9488  139.9970  168.7451 O.3     1  UNL1       -0.4684
     33 O         143.4554  139.8495  165.7918 O.3     1  UNL1       -0.4684
     34 C         143.0826  138.4002  165.6888 C.3     1  UNL1        0.2526
@<TRIPOS>BOND
     1    31    32    1
     2    32    25    1
     3    25    26   ar
     4    26    27   ar
     5    27    28   ar
     6    28    23    1
     7    23    24    1
     8    23    19    1
     9    19    20   am
    10    20    21    2
    11    20     1    1
    12     1     2    1
    13     1     3    1
    14     3     4    1
    15     4     5    1
    16     5    10    1
    17    10    11    2
    18    11    12    1
    19    12    13    2
    20    13    14    1
    21    14    15    2
    22    15    16    1
    23    16    17    2
    24    17    18    1
    25     5     6    1
    26     6     7    1
    27    28    29   ar
    28    29    30   ar
    29    30    33    1
    30    33    34    1
    31    30    25   ar
    32     7     1    1
    33    18    10    1
    34    18    14    1
    35    19    22    1
    36     2     8    1
    37     2     9    1
@<TRIPOS>MOLECULE
*****
 34 37 0 0 0
SMALL
GASTEIGER

@<TRIPOS>ATOM
      1 C         140.1090  138.1725  161.1330 C.3     1  UNL1        0.1166
      2 N         138.6322  137.9949  161.3263 N.3     1  UNL1       -0.3162
      3 C         141.5706  138.2736  161.4547 C.3     1  UNL1        0.0739
      4 C         142.5632  138.5334  160.3606 C.3     1  UNL1        0.2039
      5 N         142.0941  138.6922  158.9446 N.pl3   1  UNL1       -0.1931
      6 C         140.6326  138.5912  158.6228 C.3     1  UNL1        0.2039
      7 C         139.6400  138.3313  159.7171 C.3     1  UNL1        0.0739
      8 H         138.4358  137.8312  162.3138 H       1  UNL1        0.1192
      9 H         138.3112  137.1963  160.7789 H       1  UNL1        0.1192
     10 C         143.0868  138.9521  157.8504 C.2     1  UNL1        0.3205
     11 N         143.3061  137.9268  156.7777 N.2     1  UNL1        0.0097
     12 C         144.2986  138.1866  155.6836 C.2     1  UNL1        0.4717
     13 N         145.0720  139.4718  155.6621 N.2     1  UNL1        0.0158
     14 C         144.8527  140.4971  156.7348 C.2     1  UNL1        0.3714
     15 N         145.4636  141.8460  156.9738 N.2     1  UNL1       -0.0339
     16 C         144.8485  142.4198  158.2158 C.2     1  UNL1        0.2323
     17 C         143.8575  141.4256  158.7443 C.2     1  UNL1        0.0486
     18 C         143.8600  140.2372  157.8289 C.3     1  UNL1        0.2428
     19 N         139.1775  138.8033  163.4748 N.am    1  UNL1       -0.3012
     20 C         140.0652  137.9520  162.6161 C.2     1  UNL1        0.2352
     21 O         140.9089  136.8804  163.2403 O.2     1  UNL1       -0.2737
     22 H         138.6237  139.5066  163.0651 H       1  UNL1        0.1497
     23 C         139.1336  138.5829  164.9579 C.3     1  UNL1        0.0943
     24 C         138.5444  137.3193  165.5112 C.3     1  UNL1        0.0262
     25 C         140.7697  141.7123  167.7471 C.ar    1  UNL1        0.1724
     26 C         139.8213  140.6706  168.2622 C.ar    1  UNL1        0.0398
     27 C         139.2759  139.6275  167.3325 C.ar    1  UNL1        0.0006
     28 C         139.6790  139.6260  165.8877 C.ar    1  UNL1       -0.0013
     29 C         140.6274  140.6677  165.3725 C.ar    1  UNL1        0.0374
     30 C         141.1728  141.7109  166.3023 C.ar    1  UNL1        0.1721
     31 C         140.4071  143.4312  169.6612 C.3     1  UNL1        0.2526
     32 O         141.3150  142.7555  168.6769 O.3     1  UNL1       -0.4684
     33 O         142.1212  142.7526  165.7872 O.3     1  UNL1       -0.4684
     34 C         143.6018  142.5372  165.8938 C.3     1  UNL1        0.2526
@<TRIPOS>BOND
     1    31    32    1
     2    32    25    1
     3    25    26   ar
     4    26    27   ar
     5    27    28   ar
     6    28    23    1
     7    23    24    1
     8    23    19    1
     9    19    20   am
    10    20    21    2
    11    20     1    1
    12     1     2    1
    13     1     3    1
    14     3     4    1
    15     4     5    1
    16     5    10    1
    17    10    11    2
    18    11    12    1
    19    12    13    2
    20    13    14    1
    21    14    15    2
    22    15    16    1
    23    16    17    2
    24    17    18    1
    25     5     6    1
    26     6     7    1
    27    28    29   ar
    28    29    30   ar
    29    30    33    1
    30    33    34    1
    31    30    25   ar
    32     7     1    1
    33    18    10    1
    34    18    14    1
    35    19    22    1
    36     2     8    1
    37     2     9    1
@<TRIPOS>MOLECULE
*****
 34 37 0 0 0
SMALL
GASTEIGER

@<TRIPOS>ATOM
      1 C         140.8487  144.2618  162.9261 C.3     1  UNL1        0.1166
      2 N         140.8341  145.7492  162.7337 N.3     1  UNL1       -0.3162
      3 C         141.1209  142.8095  162.6670 C.3     1  UNL1        0.0739
      4 C         140.6466  141.7722  163.6411 C.3     1  UNL1        0.2039
      5 N         139.9002  142.1870  164.8744 N.pl3   1  UNL1       -0.1931
      6 C         139.6281  143.6392  165.1335 C.3     1  UNL1        0.2039
      7 C         140.1024  144.6765  164.1593 C.3     1  UNL1        0.0739
      8 H         141.3150  145.9845  161.8655 H       1  UNL1        0.1192
      9 H         141.3081  146.1981  163.5174 H       1  UNL1        0.1192
     10 C         139.4260  141.1496  165.8486 C.2     1  UNL1        0.3205
     11 N         138.3784  140.1580  165.4373 N.2     1  UNL1        0.0097
     12 C         137.9042  139.1206  166.4114 C.2     1  UNL1        0.4717
     13 N         138.4775  139.0748  167.7968 N.2     1  UNL1        0.0158
     14 C         139.5251  140.0665  168.2080 C.2     1  UNL1        0.3714
     15 N         140.2685  140.2653  169.4955 N.2     1  UNL1       -0.0339
     16 C         141.2023  141.4256  169.3171 C.2     1  UNL1        0.2323
     17 C         141.0359  141.9439  167.9194 C.2     1  UNL1        0.0486
     18 C         139.9993  141.1039  167.2339 C.3     1  UNL1        0.2428
     19 N         140.8519  144.2170  160.3285 N.am    1  UNL1       -0.3012
     20 C         141.5900  144.3635  161.6261 C.2     1  UNL1        0.2352
     21 O         143.0693  144.6117  161.6236 O.2     1  UNL1       -0.2737
     22 H         139.8809  144.0541  160.3301 H       1  UNL1        0.1497
     23 C         141.5931  144.3187  159.0284 C.3     1  UNL1        0.0943
     24 C         141.5807  145.6049  158.2566 C.3     1  UNL1        0.0262
     25 C         143.8538  140.7653  157.4433 C.ar    1  UNL1        0.1724
     26 C         142.3837  140.6561  157.7207 C.ar    1  UNL1        0.0398
     27 C         141.6301  141.8405  158.2490 C.ar    1  UNL1        0.0006
     28 C         142.3467  143.1342  158.5000 C.ar    1  UNL1       -0.0013
     29 C         143.8168  143.2435  158.2227 C.ar    1  UNL1        0.0374
     30 C         144.5703  142.0590  157.6943 C.ar    1  UNL1        0.1721
     31 C         144.5616  139.2547  155.4516 C.3     1  UNL1        0.2526
     32 O         144.6074  139.5808  156.9150 O.3     1  UNL1       -0.4684
     33 O         146.0404  142.1682  157.4169 O.3     1  UNL1       -0.4684
     34 C         146.5234  142.4150  156.0185 C.3     1  UNL1        0.2526
@<TRIPOS>BOND
     1    31    32    1
     2    32    25    1
     3    25    26   ar
     4    26    27   ar
     5    27    28   ar
     6    28    23    1
     7    23    24    1
     8    23    19    1
     9    19    20   am
    10    20    21    2
    11    20     1    1
    12     1     2    1
    13     1     3    1
    14     3     4    1
    15     4     5    1
    16     5    10    1
    17    10    11    2
    18    11    12    1
    19    12    13    2
    20    13    14    1
    21    14    15    2
    22    15    16    1
    23    16    17    2
    24    17    18    1
    25     5     6    1
    26     6     7    1
    27    28    29   ar
    28    29    30   ar
    29    30    33    1
    30    33    34    1
    31    30    25   ar
    32     7     1    1
    33    18    10    1
    34    18    14    1
    35    19    22    1
    36     2     8    1
    37     2     9    1
@<TRIPOS>MOLECULE
*****
 34 37 0 0 0
SMALL
GASTEIGER

@<TRIPOS>ATOM
      1 C         143.1300  139.7059  164.2046 C.3     1  UNL1        0.1166
      2 N         144.2713  138.8885  163.6765 N.3     1  UNL1       -0.3162
      3 C         141.9627  140.6477  164.2276 C.3     1  UNL1        0.0739
      4 C         141.2663  140.9477  165.5217 C.3     1  UNL1        0.2039
      5 N         141.7373  140.3058  166.7932 N.pl3   1  UNL1       -0.1931
      6 C         142.9045  139.3641  166.7703 C.3     1  UNL1        0.2039
      7 C         143.6009  139.0641  165.4759 C.3     1  UNL1        0.0739
      8 H         144.3525  139.0286  162.6694 H       1  UNL1        0.1192
      9 H         144.1008  137.9016  163.8698 H       1  UNL1        0.1192
     10 C         141.0409  140.6058  168.0874 C.2     1  UNL1        0.3205
     11 N         139.6956  140.0064  168.3717 N.2     1  UNL1        0.0097
     12 C         138.9992  140.3064  169.6659 C.2     1  UNL1        0.4717
     13 N         139.6481  141.2057  170.6759 N.2     1  UNL1        0.0158
     14 C         140.9934  141.8051  170.3916 C.2     1  UNL1        0.3714
     15 N         141.8733  142.7207  171.1901 N.2     1  UNL1       -0.0339
     16 C         143.1134  142.9867  170.3893 C.2     1  UNL1        0.2323
     17 C         143.0001  142.2354  169.0959 C.2     1  UNL1        0.0486
     18 C         141.6898  141.5051  169.0974 C.3     1  UNL1        0.2428
     19 N         141.7625  139.9099  162.0050 N.am    1  UNL1       -0.3012
     20 C         143.0554  140.0639  162.7499 C.2     1  UNL1        0.2352
     21 O         144.2736  140.5757  162.0400 O.2     1  UNL1       -0.2737
     22 H         140.9630  139.5740  162.4710 H       1  UNL1        0.1497
     23 C         141.6879  140.2679  160.5503 C.3     1  UNL1        0.0943
     24 C         142.0598  139.2546  159.5086 C.3     1  UNL1        0.0262
     25 C         140.3482  144.3812  159.3111 C.ar    1  UNL1        0.1724
     26 C         141.2786  143.5990  158.4322 C.ar    1  UNL1        0.0398
     27 C         141.7251  142.2279  158.8452 C.ar    1  UNL1        0.0006
     28 C         141.2413  141.6390  160.1372 C.ar    1  UNL1       -0.0013
     29 C         140.3109  142.4212  161.0162 C.ar    1  UNL1        0.0374
     30 C         139.8643  143.7924  160.6031 C.ar    1  UNL1        0.1721
     31 C         140.0926  146.2084  157.4819 C.3     1  UNL1        0.2526
     32 O         139.9016  145.7523  158.8980 O.3     1  UNL1       -0.4684
     33 O         138.9339  144.5746  161.4820 O.3     1  UNL1       -0.4684
     34 C         139.4758  145.3469  162.6481 C.3     1  UNL1        0.2526
@<TRIPOS>BOND
     1    31    32    1
     2    32    25    1
     3    25    26   ar
     4    26    27   ar
     5    27    28   ar
     6    28    23    1
     7    23    24    1
     8    23    19    1
     9    19    20   am
    10    20    21    2
    11    20     1    1
    12     1     2    1
    13     1     3    1
    14     3     4    1
    15     4     5    1
    16     5    10    1
    17    10    11    2
    18    11    12    1
    19    12    13    2
    20    13    14    1
    21    14    15    2
    22    15    16    1
    23    16    17    2
    24    17    18    1
    25     5     6    1
    26     6     7    1
    27    28    29   ar
    28    29    30   ar
    29    30    33    1
    30    33    34    1
    31    30    25   ar
    32     7     1    1
    33    18    10    1
    34    18    14    1
    35    19    22    1
    36     2     8    1
    37     2     9    1
