@<TRIPOS>MOLECULE
*****
 35 38 0 0 0
SMALL
GASTEIGER

@<TRIPOS>ATOM
      1 C         138.8667  139.5447  167.2451 C.ar    1  UNL1        0.2512
      2 N         137.8713  138.8870  168.1544 N.ar    1  UNL1       -0.1058
      3 N         138.0507  139.4592  169.5293 N.ar    1  UNL1       -0.0923
      4 C         139.1569  140.4706  169.4697 C.ar    1  UNL1        0.3086
      5 O         139.6612  140.5234  168.0580 O.2     1  UNL1       -0.4048
      6 C         139.3791  138.7252  162.8501 C.ar    1  UNL1        0.0505
      7 C         139.3541  137.5874  163.8272 C.ar    1  UNL1        0.0148
      8 C         139.1833  137.8606  165.2922 C.ar    1  UNL1        0.0060
      9 C         139.0375  139.2715  165.7800 C.ar    1  UNL1        0.0553
     10 C         139.0625  140.4093  164.8029 C.ar    1  UNL1        0.0060
     11 C         139.2333  140.1361  163.3380 C.ar    1  UNL1        0.0148
     12 O         141.9257  139.5003  161.4666 O.2     1  UNL1       -0.2697
     13 C         140.8232  138.8396  160.6933 C.2     1  UNL1        0.2517
     14 N         139.5499  138.4521  161.3851 N.am    1  UNL1       -0.2803
     15 H         138.8263  138.0184  160.8775 H       1  UNL1        0.1552
     16 C         140.9940  138.5665  159.2283 C.ar    1  UNL1        0.0811
     17 C         142.2732  137.9700  158.7207 C.ar    1  UNL1        0.0068
     18 C         142.4440  137.6969  157.2558 C.ar    1  UNL1        0.0003
     19 C         141.3355  138.0203  156.2983 C.ar    1  UNL1        0.0023
     20 C         140.0563  138.6168  156.8059 C.ar    1  UNL1        0.0298
     21 C         139.8855  138.8899  158.2709 C.ar    1  UNL1        0.1445
     22 F         138.6062  139.4865  158.7785 F       1  UNL1       -0.2040
     23 N         139.6689  141.2860  170.6199 N.pl3   1  UNL1       -0.2871
     24 H         139.8552  140.8544  171.4849 H       1  UNL1        0.1512
     25 C         139.8971  142.7590  170.4522 C.3     1  UNL1        0.0912
     26 C         141.1253  143.2521  169.7462 C.3     1  UNL1        0.0227
     27 C         142.3003  142.3387  169.5588 C.3     1  UNL1        0.0191
     28 C         143.1107  142.4081  168.2986 C.3     1  UNL1        0.0722
     29 N         142.9726  141.3367  167.2580 N.3     1  UNL1       -0.2725
     30 C         142.8597  139.8993  167.6719 C.3     1  UNL1        0.0749
     31 C         142.7216  138.8277  166.6314 C.3     1  UNL1        0.0526
     32 C         142.6964  139.1935  165.1769 C.3     1  UNL1        0.1638
     33 F         142.5583  138.1220  164.1363 F       1  UNL1       -0.2372
     34 C         142.8093  140.6309  164.7630 C.3     1  UNL1        0.0526
     35 C         142.9474  141.7024  165.8035 C.3     1  UNL1        0.0749
@<TRIPOS>BOND
     1    12    13    2
     2    13    14   am
     3    14     6    1
     4     6     7   ar
     5     7     8   ar
     6     8     9   ar
     7     9     1    1
     8     1     2   ar
     9     2     3   ar
    10     3     4   ar
    11     4    23    1
    12    23    25    1
    13    25    26    1
    14    26    27    1
    15    27    28    1
    16    28    29    1
    17    29    30    1
    18    30    31    1
    19    31    32    1
    20    32    33    1
    21    32    34    1
    22    34    35    1
    23     4     5   ar
    24     9    10   ar
    25    10    11   ar
    26    13    16    1
    27    16    17   ar
    28    17    18   ar
    29    18    19   ar
    30    19    20   ar
    31    20    21   ar
    32    21    22    1
    33    11     6   ar
    34    21    16   ar
    35     5     1   ar
    36    35    29    1
    37    14    15    1
    38    23    24    1
@<TRIPOS>MOLECULE
*****
 35 38 0 0 0
SMALL
GASTEIGER

@<TRIPOS>ATOM
      1 C         141.9071  143.1734  164.5407 C.ar    1  UNL1        0.2512
      2 N         143.3412  143.0293  164.9563 N.ar    1  UNL1       -0.1058
      3 N         143.3666  142.4676  166.3469 N.ar    1  UNL1       -0.0923
      4 C         141.9482  142.2646  166.7908 C.ar    1  UNL1        0.3086
      5 O         141.0462  142.7008  165.6745 O.2     1  UNL1       -0.4048
      6 C         140.4444  144.7470  160.5867 C.ar    1  UNL1        0.0505
      7 C         141.0265  143.3674  160.6759 C.ar    1  UNL1        0.0148
      8 C         141.5140  142.8429  161.9939 C.ar    1  UNL1        0.0060
      9 C         141.4195  143.6979  163.2227 C.ar    1  UNL1        0.0553
     10 C         140.8374  145.0775  163.1335 C.ar    1  UNL1        0.0060
     11 C         140.3498  145.6020  161.8155 C.ar    1  UNL1        0.0148
     12 O         142.4114  145.6895  158.5269 O.2     1  UNL1       -0.2697
     13 C         140.9403  145.7428  158.2388 C.2     1  UNL1        0.2517
     14 N         139.9568  145.2716  159.2687 N.am    1  UNL1       -0.2803
     15 H         138.9912  145.3066  159.0796 H       1  UNL1        0.1552
     16 C         140.4527  146.2674  156.9208 C.ar    1  UNL1        0.0811
     17 C         139.3024  147.2290  156.8755 C.ar    1  UNL1        0.0068
     18 C         138.8148  147.7535  155.5575 C.ar    1  UNL1        0.0003
     19 C         139.4776  147.3164  154.2848 C.ar    1  UNL1        0.0023
     20 C         140.6279  146.3548  154.3301 C.ar    1  UNL1        0.0298
     21 C         141.1154  145.8303  155.6481 C.ar    1  UNL1        0.1445
     22 F         142.2657  144.8686  155.6935 F       1  UNL1       -0.2040
     23 N         141.5090  141.7209  168.1181 N.pl3   1  UNL1       -0.2871
     24 H         142.1703  141.5713  168.8319 H       1  UNL1        0.1512
     25 C         140.0623  141.4053  168.3576 C.3     1  UNL1        0.0912
     26 C         139.5258  140.0453  168.0217 C.3     1  UNL1        0.0227
     27 C         139.5416  139.5626  166.6016 C.3     1  UNL1        0.0191
     28 C         138.2703  139.5303  165.8063 C.3     1  UNL1        0.0722
     29 N         138.1414  140.3609  164.5639 N.3     1  UNL1       -0.2725
     30 C         137.9951  141.8501  164.6693 C.3     1  UNL1        0.0749
     31 C         137.8662  142.6808  163.4270 C.3     1  UNL1        0.0526
     32 C         137.8836  142.0224  162.0793 C.3     1  UNL1        0.1638
     33 F         137.7546  142.8531  160.8371 F       1  UNL1       -0.2372
     34 C         138.0298  140.5333  161.9741 C.3     1  UNL1        0.0526
     35 C         138.1588  139.7026  163.2164 C.3     1  UNL1        0.0749
@<TRIPOS>BOND
     1    12    13    2
     2    13    14   am
     3    14     6    1
     4     6     7   ar
     5     7     8   ar
     6     8     9   ar
     7     9     1    1
     8     1     2   ar
     9     2     3   ar
    10     3     4   ar
    11     4    23    1
    12    23    25    1
    13    25    26    1
    14    26    27    1
    15    27    28    1
    16    28    29    1
    17    29    30    1
    18    30    31    1
    19    31    32    1
    20    32    33    1
    21    32    34    1
    22    34    35    1
    23     4     5   ar
    24     9    10   ar
    25    10    11   ar
    26    13    16    1
    27    16    17   ar
    28    17    18   ar
    29    18    19   ar
    30    19    20   ar
    31    20    21   ar
    32    21    22    1
    33    11     6   ar
    34    21    16   ar
    35     5     1   ar
    36    35    29    1
    37    14    15    1
    38    23    24    1
@<TRIPOS>MOLECULE
*****
 35 38 0 0 0
SMALL
GASTEIGER

@<TRIPOS>ATOM
      1 C         138.5349  140.2679  165.7813 C.ar    1  UNL1        0.2512
      2 N         137.7381  139.0687  166.2021 N.ar    1  UNL1       -0.1058
      3 N         138.0890  138.7555  167.6264 N.ar    1  UNL1       -0.0923
      4 C         139.1028  139.7612  168.0859 C.ar    1  UNL1        0.3086
      5 O         139.3783  140.6958  166.9455 O.2     1  UNL1       -0.4048
      6 C         138.4160  142.2361  161.7362 C.ar    1  UNL1        0.0505
      7 C         138.1997  143.0539  162.9749 C.ar    1  UNL1        0.0148
      8 C         138.2393  142.3979  164.3232 C.ar    1  UNL1        0.0060
      9 C         138.4953  140.9239  164.4328 C.ar    1  UNL1        0.0553
     10 C         138.7116  140.1061  163.1942 C.ar    1  UNL1        0.0060
     11 C         138.6720  140.7621  161.8459 C.ar    1  UNL1        0.0148
     12 O         140.9735  142.9196  160.3248 O.2     1  UNL1       -0.2697
     13 C         139.6551  143.2338  159.6822 C.2     1  UNL1        0.2517
     14 N         138.3763  142.8921  160.3878 N.am    1  UNL1       -0.2803
     15 H         137.5110  143.0984  159.9660 H       1  UNL1        0.1552
     16 C         139.6154  143.8899  158.3338 C.ar    1  UNL1        0.0811
     17 C         138.8704  143.2406  157.2054 C.ar    1  UNL1        0.0068
     18 C         138.8307  143.8966  155.8571 C.ar    1  UNL1        0.0003
     19 C         139.5362  145.2020  155.6372 C.ar    1  UNL1        0.0023
     20 C         140.2812  145.8513  156.7655 C.ar    1  UNL1        0.0298
     21 C         140.3208  145.1953  158.1138 C.ar    1  UNL1        0.1445
     22 F         141.0659  145.8446  159.2423 F       1  UNL1       -0.2040
     23 N         139.7307  139.8215  169.4468 N.pl3   1  UNL1       -0.2871
     24 H         139.6518  139.0551  170.0597 H       1  UNL1        0.1512
     25 C         140.4789  141.0494  169.8738 C.3     1  UNL1        0.0912
     26 C         141.8291  140.9202  170.5144 C.3     1  UNL1        0.0227
     27 C         143.0690  141.1661  169.7069 C.3     1  UNL1        0.0191
     28 C         142.9850  141.9255  168.4161 C.3     1  UNL1        0.0722
     29 N         142.7185  141.1963  167.1327 N.3     1  UNL1       -0.2725
     30 C         142.6998  139.6965  167.1123 C.3     1  UNL1        0.0749
     31 C         142.4332  138.9672  165.8289 C.3     1  UNL1        0.0526
     32 C         142.1854  139.7376  164.5659 C.3     1  UNL1        0.1638
     33 F         141.9189  139.0083  163.2826 F       1  UNL1       -0.2372
     34 C         142.2041  141.2373  164.5865 C.3     1  UNL1        0.0526
     35 C         142.4706  141.9666  165.8698 C.3     1  UNL1        0.0749
@<TRIPOS>BOND
     1    12    13    2
     2    13    14   am
     3    14     6    1
     4     6     7   ar
     5     7     8   ar
     6     8     9   ar
     7     9     1    1
     8     1     2   ar
     9     2     3   ar
    10     3     4   ar
    11     4    23    1
    12    23    25    1
    13    25    26    1
    14    26    27    1
    15    27    28    1
    16    28    29    1
    17    29    30    1
    18    30    31    1
    19    31    32    1
    20    32    33    1
    21    32    34    1
    22    34    35    1
    23     4     5   ar
    24     9    10   ar
    25    10    11   ar
    26    13    16    1
    27    16    17   ar
    28    17    18   ar
    29    18    19   ar
    30    19    20   ar
    31    20    21   ar
    32    21    22    1
    33    11     6   ar
    34    21    16   ar
    35     5     1   ar
    36    35    29    1
    37    14    15    1
    38    23    24    1
@<TRIPOS>MOLECULE
*****
 35 38 0 0 0
SMALL
GASTEIGER

@<TRIPOS>ATOM
      1 C         142.9490  138.5920  159.0815 C.ar    1  UNL1        0.2512
      2 N         143.9705  139.3928  158.3296 N.ar    1  UNL1       -0.1058
      3 N         143.8024  139.1028  156.8676 N.ar    1  UNL1       -0.0923
      4 C         142.6770  138.1227  156.7159 C.ar    1  UNL1        0.3086
      5 O         142.1496  137.8070  158.0842 O.2     1  UNL1       -0.4048
      6 C         142.3824  138.5516  163.5455 C.ar    1  UNL1        0.0505
      7 C         141.3134  138.0011  162.6488 C.ar    1  UNL1        0.0148
      8 C         141.5023  138.0146  161.1608 C.ar    1  UNL1        0.0060
      9 C         142.7602  138.5786  160.5696 C.ar    1  UNL1        0.0553
     10 C         143.8292  139.1290  161.4663 C.ar    1  UNL1        0.0060
     11 C         143.6403  139.1156  162.9542 C.ar    1  UNL1        0.0148
     12 O         141.4335  141.0215  164.9595 O.2     1  UNL1       -0.2697
     13 C         141.7191  139.7731  165.7405 C.2     1  UNL1        0.2517
     14 N         142.1935  138.5382  165.0336 N.am    1  UNL1       -0.2803
     15 H         142.3810  137.7188  165.5462 H       1  UNL1        0.1552
     16 C         141.5302  139.7596  167.2286 C.ar    1  UNL1        0.0811
     17 C         142.6736  139.3900  168.1264 C.ar    1  UNL1        0.0068
     18 C         142.4847  139.3766  169.6144 C.ar    1  UNL1        0.0003
     19 C         141.1524  139.7328  170.2045 C.ar    1  UNL1        0.0023
     20 C         140.0091  140.1023  169.3067 C.ar    1  UNL1        0.0298
     21 C         140.1980  140.1158  167.8187 C.ar    1  UNL1        0.1445
     22 F         139.0546  140.4854  166.9208 F       1  UNL1       -0.2040
     23 N         142.1683  137.5575  155.4229 N.pl3   1  UNL1       -0.2871
     24 H         141.2789  137.8157  155.0889 H       1  UNL1        0.1512
     25 C         143.0148  136.5990  154.6388 C.3     1  UNL1        0.0912
     26 C         142.3818  135.4182  153.9641 C.3     1  UNL1        0.0227
     27 C         141.3478  134.6068  154.6869 C.3     1  UNL1        0.0191
     28 C         141.6630  133.2065  155.1224 C.3     1  UNL1        0.0722
     29 N         142.8546  132.9426  155.9945 N.3     1  UNL1       -0.2725
     30 C         143.8163  131.8477  155.6390 C.3     1  UNL1        0.0749
     31 C         145.0079  131.5837  156.5111 C.3     1  UNL1        0.0526
     32 C         145.2377  132.4145  157.7387 C.3     1  UNL1        0.1638
     33 F         146.4292  132.1505  158.6107 F       1  UNL1       -0.2372
     34 C         144.2759  133.5093  158.0941 C.3     1  UNL1        0.0526
     35 C         143.0844  133.7733  157.2220 C.3     1  UNL1        0.0749
@<TRIPOS>BOND
     1    12    13    2
     2    13    14   am
     3    14     6    1
     4     6     7   ar
     5     7     8   ar
     6     8     9   ar
     7     9     1    1
     8     1     2   ar
     9     2     3   ar
    10     3     4   ar
    11     4    23    1
    12    23    25    1
    13    25    26    1
    14    26    27    1
    15    27    28    1
    16    28    29    1
    17    29    30    1
    18    30    31    1
    19    31    32    1
    20    32    33    1
    21    32    34    1
    22    34    35    1
    23     4     5   ar
    24     9    10   ar
    25    10    11   ar
    26    13    16    1
    27    16    17   ar
    28    17    18   ar
    29    18    19   ar
    30    19    20   ar
    31    20    21   ar
    32    21    22    1
    33    11     6   ar
    34    21    16   ar
    35     5     1   ar
    36    35    29    1
    37    14    15    1
    38    23    24    1
@<TRIPOS>MOLECULE
*****
 35 38 0 0 0
SMALL
GASTEIGER

@<TRIPOS>ATOM
      1 C         141.1277  144.8255  160.2405 C.ar    1  UNL1        0.2512
      2 N         139.9610  145.5563  159.6449 N.ar    1  UNL1       -0.1058
      3 N         140.3199  145.9343  158.2384 N.ar    1  UNL1       -0.0923
      4 C         141.7084  145.4370  157.9647 C.ar    1  UNL1        0.3086
      5 O         142.2076  144.7517  159.2021 O.2     1  UNL1       -0.4048
      6 C         141.3489  143.1486  164.4105 C.ar    1  UNL1        0.0505
      7 C         141.4092  144.6317  164.1944 C.ar    1  UNL1        0.0148
      8 C         141.3354  145.1906  162.8044 C.ar    1  UNL1        0.0060
      9 C         141.2014  144.2664  161.6305 C.ar    1  UNL1        0.0553
     10 C         141.1412  142.7834  161.8467 C.ar    1  UNL1        0.0060
     11 C         141.2149  142.2244  163.2366 C.ar    1  UNL1        0.0148
     12 O         143.8430  141.7647  165.3404 O.2     1  UNL1       -0.2697
     13 C         142.6697  141.8977  166.2655 C.2     1  UNL1        0.2517
     14 N         141.4227  142.5896  165.8005 N.am    1  UNL1       -0.2803
     15 H         140.6526  142.6768  166.4077 H       1  UNL1        0.1552
     16 C         142.7435  141.3387  167.6555 C.ar    1  UNL1        0.0811
     17 C         143.1533  142.2203  168.7977 C.ar    1  UNL1        0.0068
     18 C         143.2271  141.6613  170.1876 C.ar    1  UNL1        0.0003
     19 C         142.8909  140.2206  170.4354 C.ar    1  UNL1        0.0023
     20 C         142.4811  139.3389  169.2933 C.ar    1  UNL1        0.0298
     21 C         142.4073  139.8980  167.9033 C.ar    1  UNL1        0.1445
     22 F         141.9975  139.0163  166.7610 F       1  UNL1       -0.2040
     23 N         142.4648  145.5970  156.6793 N.pl3   1  UNL1       -0.2871
     24 H         143.0271  146.3920  156.5347 H       1  UNL1        0.1512
     25 C         142.3645  144.5455  155.6142 C.3     1  UNL1        0.0912
     26 C         143.3075  143.3790  155.6207 C.3     1  UNL1        0.0227
     27 C         143.3481  142.4540  156.8007 C.3     1  UNL1        0.0191
     28 C         144.4369  142.5902  157.8233 C.3     1  UNL1        0.0722
     29 N         144.3469  141.8403  159.1194 N.3     1  UNL1       -0.2725
     30 C         144.7083  142.5210  160.4062 C.3     1  UNL1        0.0749
     31 C         144.6182  141.7713  161.7024 C.3     1  UNL1        0.0526
     32 C         144.1668  140.3409  161.7115 C.3     1  UNL1        0.1638
     33 F         144.0767  139.5911  163.0076 F       1  UNL1       -0.2372
     34 C         143.8054  139.6603  160.4246 C.3     1  UNL1        0.0526
     35 C         143.8954  140.4100  159.1286 C.3     1  UNL1        0.0749
@<TRIPOS>BOND
     1    12    13    2
     2    13    14   am
     3    14     6    1
     4     6     7   ar
     5     7     8   ar
     6     8     9   ar
     7     9     1    1
     8     1     2   ar
     9     2     3   ar
    10     3     4   ar
    11     4    23    1
    12    23    25    1
    13    25    26    1
    14    26    27    1
    15    27    28    1
    16    28    29    1
    17    29    30    1
    18    30    31    1
    19    31    32    1
    20    32    33    1
    21    32    34    1
    22    34    35    1
    23     4     5   ar
    24     9    10   ar
    25    10    11   ar
    26    13    16    1
    27    16    17   ar
    28    17    18   ar
    29    18    19   ar
    30    19    20   ar
    31    20    21   ar
    32    21    22    1
    33    11     6   ar
    34    21    16   ar
    35     5     1   ar
    36    35    29    1
    37    14    15    1
    38    23    24    1
@<TRIPOS>MOLECULE
*****
 35 38 0 0 0
SMALL
GASTEIGER

@<TRIPOS>ATOM
      1 C         143.9848  141.3035  161.0771 C.ar    1  UNL1        0.2512
      2 N         145.0184  141.1360  162.1512 N.ar    1  UNL1       -0.1058
      3 N         145.1737  142.4518  162.8544 N.ar    1  UNL1       -0.0923
      4 C         144.2360  143.4326  162.2148 C.ar    1  UNL1        0.3086
      5 O         143.5013  142.7229  161.1164 O.2     1  UNL1       -0.4048
      6 C         142.5811  138.1089  158.2357 C.ar    1  UNL1        0.0505
      7 C         142.6286  139.5404  157.7904 C.ar    1  UNL1        0.0148
      8 C         143.0965  140.6053  158.7375 C.ar    1  UNL1        0.0060
      9 C         143.5169  140.2386  160.1299 C.ar    1  UNL1        0.0553
     10 C         143.4694  138.8070  160.5752 C.ar    1  UNL1        0.0060
     11 C         143.0015  137.7421  159.6281 C.ar    1  UNL1        0.0148
     12 O         144.3730  137.1843  156.0143 O.2     1  UNL1       -0.2697
     13 C         143.0091  136.5817  156.1778 C.2     1  UNL1        0.2517
     14 N         142.1132  137.0439  157.2885 N.am    1  UNL1       -0.2803
     15 H         141.2181  136.6484  157.3958 H       1  UNL1        0.1552
     16 C         142.5412  135.5167  155.2307 C.ar    1  UNL1        0.0811
     17 C         142.2830  135.8533  153.7920 C.ar    1  UNL1        0.0068
     18 C         141.8151  134.7884  152.8449 C.ar    1  UNL1        0.0003
     19 C         141.6055  133.3869  153.3366 C.ar    1  UNL1        0.0023
     20 C         141.8638  133.0502  154.7753 C.ar    1  UNL1        0.0298
     21 C         142.3316  134.1152  155.7223 C.ar    1  UNL1        0.1445
     22 F         142.5899  133.7786  157.1611 F       1  UNL1       -0.2040
     23 N         144.0635  144.8706  162.6052 N.pl3   1  UNL1       -0.2871
     24 H         144.4679  145.5814  162.0571 H       1  UNL1        0.1512
     25 C         143.2747  145.2256  163.8306 C.3     1  UNL1        0.0912
     26 C         141.8522  144.7689  163.9654 C.3     1  UNL1        0.0227
     27 C         141.5254  143.5725  164.8090 C.3     1  UNL1        0.0191
     28 C         141.3576  142.2266  164.1686 C.3     1  UNL1        0.0722
     29 N         141.9895  141.0163  164.7898 N.3     1  UNL1       -0.2725
     30 C         142.4169  141.0478  166.2273 C.3     1  UNL1        0.0749
     31 C         143.0490  139.8376  166.8486 C.3     1  UNL1        0.0526
     32 C         143.2536  138.5958  166.0324 C.3     1  UNL1        0.1638
     33 F         143.8855  137.3856  166.6536 F       1  UNL1       -0.2372
     34 C         142.8261  138.5644  164.5949 C.3     1  UNL1        0.0526
     35 C         142.1941  139.7746  163.9737 C.3     1  UNL1        0.0749
@<TRIPOS>BOND
     1    12    13    2
     2    13    14   am
     3    14     6    1
     4     6     7   ar
     5     7     8   ar
     6     8     9   ar
     7     9     1    1
     8     1     2   ar
     9     2     3   ar
    10     3     4   ar
    11     4    23    1
    12    23    25    1
    13    25    26    1
    14    26    27    1
    15    27    28    1
    16    28    29    1
    17    29    30    1
    18    30    31    1
    19    31    32    1
    20    32    33    1
    21    32    34    1
    22    34    35    1
    23     4     5   ar
    24     9    10   ar
    25    10    11   ar
    26    13    16    1
    27    16    17   ar
    28    17    18   ar
    29    18    19   ar
    30    19    20   ar
    31    20    21   ar
    32    21    22    1
    33    11     6   ar
    34    21    16   ar
    35     5     1   ar
    36    35    29    1
    37    14    15    1
    38    23    24    1
@<TRIPOS>MOLECULE
*****
 35 38 0 0 0
SMALL
GASTEIGER

@<TRIPOS>ATOM
      1 C         138.2000  141.0537  160.2372 C.ar    1  UNL1        0.2512
      2 N         137.8042  139.9296  159.3264 N.ar    1  UNL1       -0.1058
      3 N         137.6684  140.4831  157.9389 N.ar    1  UNL1       -0.0923
      4 C         137.9802  141.9494  157.9923 C.ar    1  UNL1        0.3086
      5 O         138.3087  142.3020  159.4127 O.2     1  UNL1       -0.4048
      6 C         138.9324  140.7368  164.6659 C.ar    1  UNL1        0.0505
      7 C         137.8098  141.5877  164.1504 C.ar    1  UNL1        0.0148
      8 C         137.5657  141.6933  162.6742 C.ar    1  UNL1        0.0060
      9 C         138.4442  140.9481  161.7135 C.ar    1  UNL1        0.0553
     10 C         139.5668  140.0973  162.2290 C.ar    1  UNL1        0.0060
     11 C         139.8109  139.9917  163.7052 C.ar    1  UNL1        0.0148
     12 O         141.1580  142.2987  165.9338 O.2     1  UNL1       -0.2697
     13 C         140.2893  141.4121  166.7761 C.2     1  UNL1        0.2517
     14 N         139.1766  140.6312  166.1422 N.am    1  UNL1       -0.2803
     15 H         138.6064  140.0493  166.6950 H       1  UNL1        0.1552
     16 C         140.5335  141.3064  168.2524 C.ar    1  UNL1        0.0811
     17 C         140.9347  139.9923  168.8540 C.ar    1  UNL1        0.0068
     18 C         141.1788  139.8867  170.3302 C.ar    1  UNL1        0.0003
     19 C         141.0218  141.0952  171.2048 C.ar    1  UNL1        0.0023
     20 C         140.6206  142.4094  170.6031 C.ar    1  UNL1        0.0298
     21 C         140.3764  142.5150  169.1269 C.ar    1  UNL1        0.1445
     22 F         139.9752  143.8292  168.5251 F       1  UNL1       -0.2040
     23 N         137.9659  142.8967  156.8293 N.pl3   1  UNL1       -0.2871
     24 H         137.1113  143.1500  156.4112 H       1  UNL1        0.1512
     25 C         139.2536  143.4581  156.3034 C.3     1  UNL1        0.0912
     26 C         139.9812  144.5176  157.0769 C.3     1  UNL1        0.0227
     27 C         141.0560  144.1313  158.0493 C.3     1  UNL1        0.0191
     28 C         141.4767  145.0912  159.1224 C.3     1  UNL1        0.0722
     29 N         140.9507  144.9334  160.5183 N.3     1  UNL1       -0.2725
     30 C         139.9748  145.9304  161.0691 C.3     1  UNL1        0.0749
     31 C         139.4487  145.7727  162.4650 C.3     1  UNL1        0.0526
     32 C         139.8987  144.6180  163.3101 C.3     1  UNL1        0.1638
     33 F         139.3727  144.4602  164.7059 F       1  UNL1       -0.2372
     34 C         140.8746  143.6210  162.7591 C.3     1  UNL1        0.0526
     35 C         141.4006  143.7787  161.3633 C.3     1  UNL1        0.0749
@<TRIPOS>BOND
     1    12    13    2
     2    13    14   am
     3    14     6    1
     4     6     7   ar
     5     7     8   ar
     6     8     9   ar
     7     9     1    1
     8     1     2   ar
     9     2     3   ar
    10     3     4   ar
    11     4    23    1
    12    23    25    1
    13    25    26    1
    14    26    27    1
    15    27    28    1
    16    28    29    1
    17    29    30    1
    18    30    31    1
    19    31    32    1
    20    32    33    1
    21    32    34    1
    22    34    35    1
    23     4     5   ar
    24     9    10   ar
    25    10    11   ar
    26    13    16    1
    27    16    17   ar
    28    17    18   ar
    29    18    19   ar
    30    19    20   ar
    31    20    21   ar
    32    21    22    1
    33    11     6   ar
    34    21    16   ar
    35     5     1   ar
    36    35    29    1
    37    14    15    1
    38    23    24    1
@<TRIPOS>MOLECULE
*****
 35 38 0 0 0
SMALL
GASTEIGER

@<TRIPOS>ATOM
      1 C         139.4439  138.8777  158.8343 C.ar    1  UNL1        0.2512
      2 N         138.6402  139.6991  157.8703 N.ar    1  UNL1       -0.1058
      3 N         138.6134  138.9768  156.5559 N.ar    1  UNL1       -0.0923
      4 C         139.4006  137.7090  156.7076 C.ar    1  UNL1        0.3086
      5 O         139.9139  137.6478  158.1157 O.2     1  UNL1       -0.4048
      6 C         140.2956  139.9205  163.1282 C.ar    1  UNL1        0.0505
      7 C         140.4340  140.9654  162.0610 C.ar    1  UNL1        0.0148
      8 C         140.1501  140.6178  160.6297 C.ar    1  UNL1        0.0060
      9 C         139.7278  139.2253  160.2657 C.ar    1  UNL1        0.0553
     10 C         139.5895  138.1803  161.3328 C.ar    1  UNL1        0.0060
     11 C         139.8734  138.5279  162.7641 C.ar    1  UNL1        0.0148
     12 O         138.0866  140.9174  164.8963 O.2     1  UNL1       -0.2697
     13 C         139.4751  140.7665  165.4435 C.2     1  UNL1        0.2517
     14 N         140.5796  140.2680  164.5595 N.am    1  UNL1       -0.2803
     15 H         141.4908  140.1690  164.9187 H       1  UNL1        0.1552
     16 C         139.7590  141.1141  166.8749 C.ar    1  UNL1        0.0811
     17 C         140.5215  142.3625  167.2065 C.ar    1  UNL1        0.0068
     18 C         140.8053  142.7100  168.6378 C.ar    1  UNL1        0.0003
     19 C         140.3267  141.8091  169.7374 C.ar    1  UNL1        0.0023
     20 C         139.5642  140.5607  169.4058 C.ar    1  UNL1        0.0298
     21 C         139.2803  140.2132  167.9746 C.ar    1  UNL1        0.1445
     22 F         138.5178  138.9647  167.6429 F       1  UNL1       -0.2040
     23 N         139.6337  136.6826  155.6388 N.pl3   1  UNL1       -0.2871
     24 H         138.9012  136.4290  155.0319 H       1  UNL1        0.1512
     25 C         140.9826  136.0427  155.4948 C.3     1  UNL1        0.0912
     26 C         142.1734  136.8777  155.1273 C.3     1  UNL1        0.0227
     27 C         143.1599  137.2824  156.1823 C.3     1  UNL1        0.0191
     28 C         143.0300  138.6147  156.8589 C.3     1  UNL1        0.0722
     29 N         143.2060  138.7218  158.3447 N.3     1  UNL1       -0.2725
     30 C         142.9298  137.5353  159.2199 C.3     1  UNL1        0.0749
     31 C         143.1057  137.6422  160.7058 C.3     1  UNL1        0.0526
     32 C         143.5579  138.9356  161.3164 C.3     1  UNL1        0.1638
     33 F         143.7339  139.0426  162.8022 F       1  UNL1       -0.2372
     34 C         143.8341  140.1220  160.4410 C.3     1  UNL1        0.0526
     35 C         143.6582  140.0151  158.9552 C.3     1  UNL1        0.0749
@<TRIPOS>BOND
     1    12    13    2
     2    13    14   am
     3    14     6    1
     4     6     7   ar
     5     7     8   ar
     6     8     9   ar
     7     9     1    1
     8     1     2   ar
     9     2     3   ar
    10     3     4   ar
    11     4    23    1
    12    23    25    1
    13    25    26    1
    14    26    27    1
    15    27    28    1
    16    28    29    1
    17    29    30    1
    18    30    31    1
    19    31    32    1
    20    32    33    1
    21    32    34    1
    22    34    35    1
    23     4     5   ar
    24     9    10   ar
    25    10    11   ar
    26    13    16    1
    27    16    17   ar
    28    17    18   ar
    29    18    19   ar
    30    19    20   ar
    31    20    21   ar
    32    21    22    1
    33    11     6   ar
    34    21    16   ar
    35     5     1   ar
    36    35    29    1
    37    14    15    1
    38    23    24    1
@<TRIPOS>MOLECULE
*****
 35 38 0 0 0
SMALL
GASTEIGER

@<TRIPOS>ATOM
      1 C         141.8868  142.5338  160.7382 C.ar    1  UNL1        0.2512
      2 N         142.9409  143.5940  160.6161 N.ar    1  UNL1       -0.1058
      3 N         142.5047  144.7772  161.4284 N.ar    1  UNL1       -0.0923
      4 C         141.1810  144.4481  162.0527 C.ar    1  UNL1        0.3086
      5 O         140.7992  143.0617  161.6261 O.2     1  UNL1       -0.4048
      6 C         141.9727  138.4811  158.7843 C.ar    1  UNL1        0.0505
      7 C         143.0638  138.8793  159.7335 C.ar    1  UNL1        0.0148
      8 C         143.0351  140.2302  160.3848 C.ar    1  UNL1        0.0060
      9 C         141.9154  141.1829  160.0869 C.ar    1  UNL1        0.0553
     10 C         140.8244  140.7846  159.1377 C.ar    1  UNL1        0.0060
     11 C         140.8531  139.4338  158.4864 C.ar    1  UNL1        0.0148
     12 O         143.8088  137.9716  156.4670 O.2     1  UNL1       -0.2697
     13 C         142.9193  136.8754  156.9743 C.2     1  UNL1        0.2517
     14 N         142.0014  137.1302  158.1329 N.am    1  UNL1       -0.2803
     15 H         141.4176  136.4107  158.4658 H       1  UNL1        0.1552
     16 C         142.9480  135.5245  156.3229 C.ar    1  UNL1        0.0811
     17 C         142.5712  135.3803  154.8782 C.ar    1  UNL1        0.0068
     18 C         142.5999  134.0294  154.2269 C.ar    1  UNL1        0.0003
     19 C         143.0052  132.8227  155.0204 C.ar    1  UNL1        0.0023
     20 C         143.3820  132.9669  156.4651 C.ar    1  UNL1        0.0298
     21 C         143.3533  134.3178  157.1164 C.ar    1  UNL1        0.1445
     22 F         143.7301  134.4620  158.5611 F       1  UNL1       -0.2040
     23 N         140.3798  145.3477  162.9465 N.pl3   1  UNL1       -0.2871
     24 H         140.4695  146.3250  162.8693 H       1  UNL1        0.1512
     25 C         139.4421  144.7581  163.9580 C.3     1  UNL1        0.0912
     26 C         138.1699  144.1026  163.5087 C.3     1  UNL1        0.0227
     27 C         137.7593  142.7832  164.0924 C.3     1  UNL1        0.0191
     28 C         137.3533  141.6571  163.1886 C.3     1  UNL1        0.0722
     29 N         138.3257  140.5587  162.8754 N.3     1  UNL1       -0.2725
     30 C         139.6605  140.5216  163.5586 C.3     1  UNL1        0.0749
     31 C         140.6330  139.4232  163.2454 C.3     1  UNL1        0.0526
     32 C         140.2706  138.3621  162.2491 C.3     1  UNL1        0.1638
     33 F         141.2431  137.2638  161.9359 F       1  UNL1       -0.2372
     34 C         138.9357  138.3994  161.5659 C.3     1  UNL1        0.0526
     35 C         137.9633  139.4977  161.8791 C.3     1  UNL1        0.0749
@<TRIPOS>BOND
     1    12    13    2
     2    13    14   am
     3    14     6    1
     4     6     7   ar
     5     7     8   ar
     6     8     9   ar
     7     9     1    1
     8     1     2   ar
     9     2     3   ar
    10     3     4   ar
    11     4    23    1
    12    23    25    1
    13    25    26    1
    14    26    27    1
    15    27    28    1
    16    28    29    1
    17    29    30    1
    18    30    31    1
    19    31    32    1
    20    32    33    1
    21    32    34    1
    22    34    35    1
    23     4     5   ar
    24     9    10   ar
    25    10    11   ar
    26    13    16    1
    27    16    17   ar
    28    17    18   ar
    29    18    19   ar
    30    19    20   ar
    31    20    21   ar
    32    21    22    1
    33    11     6   ar
    34    21    16   ar
    35     5     1   ar
    36    35    29    1
    37    14    15    1
    38    23    24    1
