@<TRIPOS>MOLECULE
*****
 24 26 0 0 0
SMALL
GASTEIGER

@<TRIPOS>ATOM
      1 C         142.2898  141.8674  167.4271 C.ar    1  UNL1        0.1453
      2 C         141.2017  141.4867  166.4674 C.ar    1  UNL1        0.0376
      3 C         139.9827  140.7666  166.9628 C.ar    1  UNL1        0.0063
      4 C         139.8519  140.4271  168.4180 C.ar    1  UNL1        0.0395
      5 C         140.9400  140.8077  169.3778 C.ar    1  UNL1        0.0063
      6 C         142.1590  141.5279  168.8823 C.ar    1  UNL1        0.0376
      7 C         138.6329  139.7069  168.9135 C.ar    1  UNL1        0.2058
      8 N         137.7709  138.7778  168.1112 N.ar    1  UNL1       -0.1077
      9 N         136.6671  138.2860  169.0000 N.ar    1  UNL1       -0.0450
     10 N         136.8470  138.9113  170.3516 N.ar    1  UNL1       -0.1495
     11 N         138.0619  139.7894  170.2981 N.ar    1  UNL1       -0.1297
     12 C         135.9666  138.6962  171.5468 C.3     1  UNL1        0.1681
     13 C         136.0522  137.4139  172.3204 C.3     1  UNL1        0.0938
     14 N         137.2672  136.5431  172.1970 N.3     1  UNL1       -0.3194
     15 H         137.3260  136.1740  171.2479 H       1  UNL1        0.1189
     16 H         137.2001  135.7699  172.8589 H       1  UNL1        0.1189
     17 O         143.5088  142.5876  166.9316 O.3     1  UNL1       -0.4535
     18 C         144.8016  142.6170  161.0726 C.3     1  UNL1        0.0310
     19 C         144.4784  142.6096  162.5374 C.ar    1  UNL1       -0.0217
     20 C         144.5729  141.3334  163.3199 C.ar    1  UNL1       -0.0011
     21 C         144.2497  141.3261  164.7846 C.ar    1  UNL1        0.0372
     22 C         143.8320  142.5949  165.4669 C.ar    1  UNL1        0.1453
     23 C         143.7375  143.8711  164.6844 C.ar    1  UNL1        0.0372
     24 C         144.0607  143.8785  163.2197 C.ar    1  UNL1       -0.0011
@<TRIPOS>BOND
     1    18    19    1
     2    19    20   ar
     3    20    21   ar
     4    21    22   ar
     5    22    17    1
     6    17     1    1
     7     1     2   ar
     8     2     3   ar
     9     3     4   ar
    10     4     7    1
    11     7     8   ar
    12     8     9   ar
    13     9    10   ar
    14    10    12    1
    15    12    13    1
    16    13    14    1
    17    10    11   ar
    18     4     5   ar
    19     5     6   ar
    20    22    23   ar
    21    23    24   ar
    22    24    19   ar
    23     6     1   ar
    24    11     7   ar
    25    14    15    1
    26    14    16    1
@<TRIPOS>MOLECULE
*****
 24 26 0 0 0
SMALL
GASTEIGER

@<TRIPOS>ATOM
      1 C         138.5419  139.0102  165.9303 C.ar    1  UNL1        0.1453
      2 C         138.9421  137.7733  165.1820 C.ar    1  UNL1        0.0376
      3 C         139.0029  137.7899  163.6834 C.ar    1  UNL1        0.0063
      4 C         138.6634  139.0435  162.9329 C.ar    1  UNL1        0.0395
      5 C         138.2631  140.2804  163.6810 C.ar    1  UNL1        0.0063
      6 C         138.2024  140.2638  165.1798 C.ar    1  UNL1        0.0376
      7 C         138.7242  139.0602  161.4342 C.ar    1  UNL1        0.2058
      8 N         137.7977  139.8088  160.5225 N.ar    1  UNL1       -0.1077
      9 N         138.2230  139.5424  159.1089 N.ar    1  UNL1       -0.0450
     10 N         139.4124  138.6292  159.1470 N.ar    1  UNL1       -0.1495
     11 N         139.7221  138.3311  160.5841 N.ar    1  UNL1       -0.1297
     12 C         140.1606  138.1059  157.9570 C.3     1  UNL1        0.1681
     13 C         139.4836  138.0264  156.6208 C.3     1  UNL1        0.0938
     14 N         138.9548  136.7133  156.1249 N.3     1  UNL1       -0.3194
     15 H         139.7323  136.0739  155.9605 H       1  UNL1        0.1189
     16 H         138.4447  136.8593  155.2537 H       1  UNL1        0.1189
     17 O         138.4811  138.9935  167.4289 O.3     1  UNL1       -0.4535
     18 C         142.2105  142.4432  170.6212 C.3     1  UNL1        0.0310
     19 C         141.2782  141.5808  169.8232 C.ar    1  UNL1       -0.0217
     20 C         139.9157  141.2538  170.3586 C.ar    1  UNL1       -0.0011
     21 C         138.9834  140.3913  169.5605 C.ar    1  UNL1        0.0372
     22 C         139.4134  139.8560  168.2270 C.ar    1  UNL1        0.1453
     23 C         140.7759  140.1830  167.6916 C.ar    1  UNL1        0.0372
     24 C         141.7083  141.0454  168.4896 C.ar    1  UNL1       -0.0011
@<TRIPOS>BOND
     1    18    19    1
     2    19    20   ar
     3    20    21   ar
     4    21    22   ar
     5    22    17    1
     6    17     1    1
     7     1     2   ar
     8     2     3   ar
     9     3     4   ar
    10     4     7    1
    11     7     8   ar
    12     8     9   ar
    13     9    10   ar
    14    10    12    1
    15    12    13    1
    16    13    14    1
    17    10    11   ar
    18     4     5   ar
    19     5     6   ar
    20    22    23   ar
    21    23    24   ar
    22    24    19   ar
    23     6     1   ar
    24    11     7   ar
    25    14    15    1
    26    14    16    1
@<TRIPOS>MOLECULE
*****
 24 26 0 0 0
SMALL
GASTEIGER

@<TRIPOS>ATOM
      1 C         140.4737  144.4061  163.4207 C.ar    1  UNL1        0.1453
      2 C         141.5513  143.7241  162.6309 C.ar    1  UNL1        0.0376
      3 C         141.7633  144.0792  161.1891 C.ar    1  UNL1        0.0063
      4 C         140.8977  145.1163  160.5370 C.ar    1  UNL1        0.0395
      5 C         139.8202  145.7983  161.3268 C.ar    1  UNL1        0.0063
      6 C         139.6082  145.4432  162.7687 C.ar    1  UNL1        0.0376
      7 C         141.1097  145.4714  159.0951 C.ar    1  UNL1        0.2058
      8 N         142.4238  145.4736  158.3717 N.ar    1  UNL1       -0.1077
      9 N         142.1711  145.8902  156.9530 N.ar    1  UNL1       -0.0450
     10 N         140.7009  146.1454  156.7996 N.ar    1  UNL1       -0.1495
     11 N         140.0450  145.8866  158.1236 N.ar    1  UNL1       -0.1297
     12 C         140.0083  146.5827  155.5431 C.3     1  UNL1        0.1681
     13 C         138.8827  147.5717  155.6123 C.3     1  UNL1        0.0938
     14 N         138.6967  148.4117  156.8410 N.3     1  UNL1       -0.3194
     15 H         138.4462  147.8127  157.6277 H       1  UNL1        0.1189
     16 H         137.9523  149.0901  156.6796 H       1  UNL1        0.1189
     17 O         140.2618  144.0510  164.8626 O.3     1  UNL1       -0.4535
     18 C         138.1025  138.6504  166.3361 C.3     1  UNL1        0.0310
     19 C         138.6423  140.0005  165.9677 C.ar    1  UNL1       -0.0217
     20 C         138.1143  140.7151  164.7592 C.ar    1  UNL1       -0.0011
     21 C         138.6542  142.0653  164.3908 C.ar    1  UNL1        0.0372
     22 C         139.7219  142.7008  165.2309 C.ar    1  UNL1        0.1453
     23 C         140.2499  141.9862  166.4395 C.ar    1  UNL1        0.0372
     24 C         139.7101  140.6361  166.8078 C.ar    1  UNL1       -0.0011
@<TRIPOS>BOND
     1    18    19    1
     2    19    20   ar
     3    20    21   ar
     4    21    22   ar
     5    22    17    1
     6    17     1    1
     7     1     2   ar
     8     2     3   ar
     9     3     4   ar
    10     4     7    1
    11     7     8   ar
    12     8     9   ar
    13     9    10   ar
    14    10    12    1
    15    12    13    1
    16    13    14    1
    17    10    11   ar
    18     4     5   ar
    19     5     6   ar
    20    22    23   ar
    21    23    24   ar
    22    24    19   ar
    23     6     1   ar
    24    11     7   ar
    25    14    15    1
    26    14    16    1
@<TRIPOS>MOLECULE
*****
 24 26 0 0 0
SMALL
GASTEIGER

@<TRIPOS>ATOM
      1 C         143.3243  138.6589  165.8638 C.ar    1  UNL1        0.1453
      2 C         144.4791  139.2669  165.1243 C.ar    1  UNL1        0.0376
      3 C         144.4894  139.2732  163.6244 C.ar    1  UNL1        0.0063
      4 C         143.3449  138.6717  162.8639 C.ar    1  UNL1        0.0395
      5 C         142.1901  138.0637  163.6034 C.ar    1  UNL1        0.0063
      6 C         142.1798  138.0574  165.1034 C.ar    1  UNL1        0.0376
      7 C         143.3553  138.6780  161.3639 C.ar    1  UNL1        0.2058
      8 N         144.0346  139.6914  160.4913 N.ar    1  UNL1       -0.1077
      9 N         143.7873  139.3119  159.0612 N.ar    1  UNL1       -0.0450
     10 N         142.9551  138.0639  159.0502 N.ar    1  UNL1       -0.1495
     11 N         142.6881  137.6722  160.4733 N.ar    1  UNL1       -0.1297
     12 C         142.4744  137.3356  157.8303 C.3     1  UNL1        0.1681
     13 C         142.7705  137.8820  156.4651 C.3     1  UNL1        0.0938
     14 N         144.1783  138.2370  156.0884 N.3     1  UNL1       -0.3194
     15 H         144.4953  139.0211  156.6585 H       1  UNL1        0.1189
     16 H         144.2110  138.4980  155.1029 H       1  UNL1        0.1189
     17 O         143.3140  138.6526  167.3637 O.3     1  UNL1       -0.4535
     18 C         139.8954  142.5710  170.3570 C.3     1  UNL1        0.0310
     19 C         140.7501  141.5914  169.6087 C.ar    1  UNL1       -0.0217
     20 C         141.2385  140.3480  170.2908 C.ar    1  UNL1       -0.0011
     21 C         142.0931  139.3684  169.5425 C.ar    1  UNL1        0.0372
     22 C         142.4593  139.6322  168.1121 C.ar    1  UNL1        0.1453
     23 C         141.9709  140.8756  167.4299 C.ar    1  UNL1        0.0372
     24 C         141.1163  141.8552  168.1783 C.ar    1  UNL1       -0.0011
@<TRIPOS>BOND
     1    18    19    1
     2    19    20   ar
     3    20    21   ar
     4    21    22   ar
     5    22    17    1
     6    17     1    1
     7     1     2   ar
     8     2     3   ar
     9     3     4   ar
    10     4     7    1
    11     7     8   ar
    12     8     9   ar
    13     9    10   ar
    14    10    12    1
    15    12    13    1
    16    13    14    1
    17    10    11   ar
    18     4     5   ar
    19     5     6   ar
    20    22    23   ar
    21    23    24   ar
    22    24    19   ar
    23     6     1   ar
    24    11     7   ar
    25    14    15    1
    26    14    16    1
@<TRIPOS>MOLECULE
*****
 24 26 0 0 0
SMALL
GASTEIGER

@<TRIPOS>ATOM
      1 C         142.8452  138.5066  164.7056 C.ar    1  UNL1        0.1453
      2 C         141.7906  137.8484  163.8661 C.ar    1  UNL1        0.0376
      3 C         141.9088  137.8567  162.3709 C.ar    1  UNL1        0.0063
      4 C         143.0816  138.5232  161.7149 C.ar    1  UNL1        0.0395
      5 C         144.1362  139.1814  162.5543 C.ar    1  UNL1        0.0063
      6 C         144.0180  139.1731  164.0497 C.ar    1  UNL1        0.0376
      7 C         143.1998  138.5315  160.2196 C.ar    1  UNL1        0.2058
      8 N         143.8873  139.5794  159.3954 N.ar    1  UNL1       -0.1077
      9 N         143.7637  139.1889  157.9523 N.ar    1  UNL1       -0.0450
     10 N         142.9998  137.8996  157.8848 N.ar    1  UNL1       -0.1495
     11 N         142.6514  137.4934  159.2860 N.ar    1  UNL1       -0.1297
     12 C         142.6465  137.1486  156.6354 C.3     1  UNL1        0.1681
     13 C         143.7322  136.6043  155.7550 C.3     1  UNL1        0.0938
     14 N         144.8822  137.4798  155.3539 N.3     1  UNL1       -0.3194
     15 H         144.5427  138.2355  154.7588 H       1  UNL1        0.1189
     16 H         145.5687  136.9259  154.8417 H       1  UNL1        0.1189
     17 O         142.7269  138.4983  166.2009 O.3     1  UNL1       -0.4535
     18 C         140.4709  143.2675  169.0584 C.3     1  UNL1        0.0310
     19 C         141.0349  142.0752  168.3440 C.ar    1  UNL1       -0.0217
     20 C         141.0033  142.0145  166.8456 C.ar    1  UNL1       -0.0011
     21 C         141.5673  140.8222  166.1312 C.ar    1  UNL1        0.0372
     22 C         142.1629  139.6906  166.9152 C.ar    1  UNL1        0.1453
     23 C         142.1945  139.7513  168.4136 C.ar    1  UNL1        0.0372
     24 C         141.6305  140.9436  169.1280 C.ar    1  UNL1       -0.0011
@<TRIPOS>BOND
     1    18    19    1
     2    19    20   ar
     3    20    21   ar
     4    21    22   ar
     5    22    17    1
     6    17     1    1
     7     1     2   ar
     8     2     3   ar
     9     3     4   ar
    10     4     7    1
    11     7     8   ar
    12     8     9   ar
    13     9    10   ar
    14    10    12    1
    15    12    13    1
    16    13    14    1
    17    10    11   ar
    18     4     5   ar
    19     5     6   ar
    20    22    23   ar
    21    23    24   ar
    22    24    19   ar
    23     6     1   ar
    24    11     7   ar
    25    14    15    1
    26    14    16    1
@<TRIPOS>MOLECULE
*****
 24 26 0 0 0
SMALL
GASTEIGER

@<TRIPOS>ATOM
      1 C         138.5135  138.7692  163.6224 C.ar    1  UNL1        0.1453
      2 C         138.8146  137.6906  164.6205 C.ar    1  UNL1        0.0376
      3 C         139.0513  138.0445  166.0588 C.ar    1  UNL1        0.0063
      4 C         138.9869  139.4770  166.4991 C.ar    1  UNL1        0.0395
      5 C         138.6858  140.5556  165.5011 C.ar    1  UNL1        0.0063
      6 C         138.4491  140.2017  164.0627 C.ar    1  UNL1        0.0376
      7 C         139.2236  139.8309  167.9374 C.ar    1  UNL1        0.2058
      8 N         138.3003  139.5342  169.0818 N.ar    1  UNL1       -0.1077
      9 N         138.9312  140.0636  170.3356 N.ar    1  UNL1       -0.0450
     10 N         140.2444  140.6874  169.9660 N.ar    1  UNL1       -0.1495
     11 N         140.4250  140.5436  168.4838 N.ar    1  UNL1       -0.1297
     12 C         141.2076  141.3404  170.9123 C.3     1  UNL1        0.1681
     13 C         142.6811  141.0993  170.7678 C.3     1  UNL1        0.0938
     14 N         143.2386  139.7210  170.9662 N.3     1  UNL1       -0.3194
     15 H         143.1145  139.4408  171.9390 H       1  UNL1        0.1189
     16 H         144.2323  139.7198  170.7361 H       1  UNL1        0.1189
     17 O         138.2768  138.4153  162.1842 O.3     1  UNL1       -0.4535
     18 C         142.8294  138.5308  158.2777 C.3     1  UNL1        0.0310
     19 C         141.6912  138.5019  159.2543 C.ar    1  UNL1       -0.0217
     20 C         140.3059  138.8576  158.8023 C.ar    1  UNL1       -0.0011
     21 C         139.1678  138.8287  159.7789 C.ar    1  UNL1        0.0372
     22 C         139.4149  138.4442  161.2076 C.ar    1  UNL1        0.1453
     23 C         140.8002  138.0885  161.6596 C.ar    1  UNL1        0.0372
     24 C         141.9384  138.1174  160.6830 C.ar    1  UNL1       -0.0011
@<TRIPOS>BOND
     1    18    19    1
     2    19    20   ar
     3    20    21   ar
     4    21    22   ar
     5    22    17    1
     6    17     1    1
     7     1     2   ar
     8     2     3   ar
     9     3     4   ar
    10     4     7    1
    11     7     8   ar
    12     8     9   ar
    13     9    10   ar
    14    10    12    1
    15    12    13    1
    16    13    14    1
    17    10    11   ar
    18     4     5   ar
    19     5     6   ar
    20    22    23   ar
    21    23    24   ar
    22    24    19   ar
    23     6     1   ar
    24    11     7   ar
    25    14    15    1
    26    14    16    1
@<TRIPOS>MOLECULE
*****
 24 26 0 0 0
SMALL
GASTEIGER

@<TRIPOS>ATOM
      1 C         139.5279  138.2141  164.0604 C.ar    1  UNL1        0.1453
      2 C         140.6708  139.1427  164.3460 C.ar    1  UNL1        0.0376
      3 C         140.7738  139.8165  165.6822 C.ar    1  UNL1        0.0063
      4 C         139.7340  139.5617  166.7328 C.ar    1  UNL1        0.0395
      5 C         138.5911  138.6331  166.4473 C.ar    1  UNL1        0.0063
      6 C         138.4880  137.9593  165.1111 C.ar    1  UNL1        0.0376
      7 C         139.8371  140.2354  168.0691 C.ar    1  UNL1        0.2058
      8 N         139.0014  139.9307  169.2769 N.ar    1  UNL1       -0.1077
      9 N         139.4418  140.8392  170.3864 N.ar    1  UNL1       -0.0450
     10 N         140.5496  141.7053  169.8642 N.ar    1  UNL1       -0.1495
     11 N         140.7939  141.3321  168.4320 N.ar    1  UNL1       -0.1297
     12 C         141.2841  142.7594  170.6382 C.3     1  UNL1        0.1681
     13 C         142.7669  142.9151  170.4727 C.3     1  UNL1        0.0938
     14 N         143.4048  142.6509  169.1412 N.3     1  UNL1       -0.3194
     15 H         143.3101  141.6622  168.9089 H       1  UNL1        0.1189
     16 H         144.3937  142.8971  169.1831 H       1  UNL1        0.1189
     17 O         139.4248  137.5404  162.7242 O.3     1  UNL1       -0.4535
     18 C         138.0856  140.7555  157.8386 C.3     1  UNL1        0.0310
     19 C         138.4204  139.9517  159.0600 C.ar    1  UNL1       -0.0217
     20 C         137.4644  139.9090  160.2150 C.ar    1  UNL1       -0.0011
     21 C         137.7992  139.1052  161.4365 C.ar    1  UNL1        0.0372
     22 C         139.0900  138.3442  161.5028 C.ar    1  UNL1        0.1453
     23 C         140.0460  138.3868  160.3478 C.ar    1  UNL1        0.0372
     24 C         139.7112  139.1906  159.1264 C.ar    1  UNL1       -0.0011
@<TRIPOS>BOND
     1    18    19    1
     2    19    20   ar
     3    20    21   ar
     4    21    22   ar
     5    22    17    1
     6    17     1    1
     7     1     2   ar
     8     2     3   ar
     9     3     4   ar
    10     4     7    1
    11     7     8   ar
    12     8     9   ar
    13     9    10   ar
    14    10    12    1
    15    12    13    1
    16    13    14    1
    17    10    11   ar
    18     4     5   ar
    19     5     6   ar
    20    22    23   ar
    21    23    24   ar
    22    24    19   ar
    23     6     1   ar
    24    11     7   ar
    25    14    15    1
    26    14    16    1
@<TRIPOS>MOLECULE
*****
 24 26 0 0 0
SMALL
GASTEIGER

@<TRIPOS>ATOM
      1 C         143.5624  138.8546  165.2801 C.ar    1  UNL1        0.1453
      2 C         144.5963  139.8048  164.7527 C.ar    1  UNL1        0.0376
      3 C         144.6750  140.0864  163.2815 C.ar    1  UNL1        0.0063
      4 C         143.7199  139.4178  162.3377 C.ar    1  UNL1        0.0395
      5 C         142.6861  138.4676  162.8651 C.ar    1  UNL1        0.0063
      6 C         142.6073  138.1860  164.3364 C.ar    1  UNL1        0.0376
      7 C         143.7987  139.6994  160.8664 C.ar    1  UNL1        0.2058
      8 N         143.5229  138.7190  159.7651 N.ar    1  UNL1       -0.1077
      9 N         143.7209  139.4245  158.4562 N.ar    1  UNL1       -0.0450
     10 N         144.1191  140.8409  158.7486 N.ar    1  UNL1       -0.1495
     11 N         144.1672  141.0107  160.2382 N.ar    1  UNL1       -0.1297
     12 C         144.4169  141.9011  157.7303 C.3     1  UNL1        0.1681
     13 C         145.4773  141.6699  156.6948 C.3     1  UNL1        0.0938
     14 N         145.8569  140.2709  156.3095 N.3     1  UNL1       -0.3194
     15 H         146.2918  139.8051  157.1059 H       1  UNL1        0.1189
     16 H         146.5156  140.2995  155.5312 H       1  UNL1        0.1189
     17 O         143.4836  138.5730  166.7513 O.3     1  UNL1       -0.4535
     18 C         139.6856  141.6825  170.2019 C.3     1  UNL1        0.0310
     19 C         140.6351  140.9051  169.3392 C.ar    1  UNL1       -0.0217
     20 C         140.6808  141.1544  167.8608 C.ar    1  UNL1       -0.0011
     21 C         141.6303  140.3770  166.9982 C.ar    1  UNL1        0.0372
     22 C         142.5341  139.3504  167.6140 C.ar    1  UNL1        0.1453
     23 C         142.4883  139.1011  169.0924 C.ar    1  UNL1        0.0372
     24 C         141.5388  139.8785  169.9550 C.ar    1  UNL1       -0.0011
@<TRIPOS>BOND
     1    18    19    1
     2    19    20   ar
     3    20    21   ar
     4    21    22   ar
     5    22    17    1
     6    17     1    1
     7     1     2   ar
     8     2     3   ar
     9     3     4   ar
    10     4     7    1
    11     7     8   ar
    12     8     9   ar
    13     9    10   ar
    14    10    12    1
    15    12    13    1
    16    13    14    1
    17    10    11   ar
    18     4     5   ar
    19     5     6   ar
    20    22    23   ar
    21    23    24   ar
    22    24    19   ar
    23     6     1   ar
    24    11     7   ar
    25    14    15    1
    26    14    16    1
@<TRIPOS>MOLECULE
*****
 24 26 0 0 0
SMALL
GASTEIGER

@<TRIPOS>ATOM
      1 C         142.9007  142.7591  164.4521 C.ar    1  UNL1        0.1453
      2 C         142.3554  141.8900  163.3579 C.ar    1  UNL1        0.0376
      3 C         141.8519  142.5101  162.0882 C.ar    1  UNL1        0.0063
      4 C         141.8937  143.9992  161.9128 C.ar    1  UNL1        0.0395
      5 C         142.4390  144.8683  163.0070 C.ar    1  UNL1        0.0063
      6 C         142.9425  144.2482  164.2767 C.ar    1  UNL1        0.0376
      7 C         141.3902  144.6192  160.6431 C.ar    1  UNL1        0.2058
      8 N         139.9925  145.1021  160.3916 N.ar    1  UNL1       -0.1077
      9 N         139.9344  145.6465  158.9951 N.ar    1  UNL1       -0.0450
     10 N         141.2963  145.5002  158.3835 N.ar    1  UNL1       -0.1495
     11 N         142.1960  144.8653  159.4021 N.ar    1  UNL1       -0.1297
     12 C         141.6894  145.9157  156.9970 C.3     1  UNL1        0.1681
     13 C         140.6396  146.3542  156.0193 C.3     1  UNL1        0.0938
     14 N         139.6145  147.3711  156.4253 N.3     1  UNL1       -0.3194
     15 H         139.0168  146.9795  157.1532 H       1  UNL1        0.1189
     16 H         139.0456  147.6220  155.6167 H       1  UNL1        0.1189
     17 O         143.4042  142.1391  165.7218 O.3     1  UNL1       -0.4535
     18 C         140.1834  142.5906  170.7638 C.3     1  UNL1        0.0310
     19 C         140.9886  142.4777  169.5033 C.ar    1  UNL1       -0.0217
     20 C         142.4868  142.4513  169.5703 C.ar    1  UNL1       -0.0011
     21 C         143.2920  142.3384  168.3097 C.ar    1  UNL1        0.0372
     22 C         142.5990  142.2520  166.9823 C.ar    1  UNL1        0.1453
     23 C         141.1007  142.2784  166.9154 C.ar    1  UNL1        0.0372
     24 C         140.2955  142.3912  168.1759 C.ar    1  UNL1       -0.0011
@<TRIPOS>BOND
     1    18    19    1
     2    19    20   ar
     3    20    21   ar
     4    21    22   ar
     5    22    17    1
     6    17     1    1
     7     1     2   ar
     8     2     3   ar
     9     3     4   ar
    10     4     7    1
    11     7     8   ar
    12     8     9   ar
    13     9    10   ar
    14    10    12    1
    15    12    13    1
    16    13    14    1
    17    10    11   ar
    18     4     5   ar
    19     5     6   ar
    20    22    23   ar
    21    23    24   ar
    22    24    19   ar
    23     6     1   ar
    24    11     7   ar
    25    14    15    1
    26    14    16    1
