@<TRIPOS>MOLECULE
*****
 32 37 0 0 0
SMALL
GASTEIGER

@<TRIPOS>ATOM
      1 N         138.4752  145.1322  165.5993 N.pl3   1  UNL1       -0.3133
      2 C         138.4024  144.2808  164.3665 C.2     1  UNL1        0.2770
      3 N         138.6542  142.8036  164.2990 N.2     1  UNL1       -0.2202
      4 C         138.4724  142.3670  162.8756 C.3     1  UNL1        0.1580
      5 C         138.1082  143.5743  162.0634 C.3     1  UNL1        0.2351
      6 O         138.0650  144.7571  162.9848 O.2     1  UNL1       -0.4478
      7 C         138.8422  141.2553  163.8123 C.ar    1  UNL1        0.0357
      8 C         139.0569  141.5420  165.2689 C.ar    1  UNL1        0.0007
      9 C         139.4267  140.4304  166.2056 C.ar    1  UNL1        0.0014
     10 C         139.5818  139.0319  165.6857 C.ar    1  UNL1        0.0031
     11 C         139.3672  138.7451  164.2291 C.ar    1  UNL1        0.0366
     12 C         138.9974  139.8569  163.2924 C.ar    1  UNL1        0.1360
     13 O         138.7827  139.5702  161.8358 O.3     1  UNL1       -0.4826
     14 C         138.4129  140.6818  160.8991 C.3     1  UNL1        0.1395
     15 C         138.4755  139.4543  160.0392 C.3     1  UNL1        0.0404
     16 C         138.1094  140.2763  158.8390 C.3     1  UNL1        0.0072
     17 C         138.0468  141.5039  159.6989 C.3     1  UNL1        0.0404
     18 C         138.2578  142.0802  161.4190 C.3     1  UNL1        0.1141
     19 C         138.3609  141.7701  161.6803 C.3     1  UNL1        0.1501
     20 O         138.2525  142.0961  161.4057 O.3     1  UNL1       -0.3532
     21 C         138.3609  141.7701  161.6803 C.3     1  UNL1        0.1501
     22 H         138.7061  144.7254  166.4656 H       1  UNL1        0.1466
     23 H         138.2921  146.0979  165.5422 H       1  UNL1        0.1466
     24 C         139.6413  140.7171  167.6622 C.ar    1  UNL1        0.0190
     25 C         139.2074  139.7195  168.6949 C.ar    1  UNL1        0.0988
     26 N         139.4221  140.0062  170.1515 N.ar    1  UNL1       -0.2425
     27 C         140.0706  141.2905  170.5754 C.ar    1  UNL1        0.1000
     28 C         140.5045  142.2883  169.5427 C.ar    1  UNL1        0.0627
     29 C         140.2899  142.0015  168.0861 C.ar    1  UNL1        0.0042
     30 C         141.1531  143.5726  169.9667 C.3     1  UNL1        0.3425
     31 F         142.6048  143.5910  170.3438 F       1  UNL1       -0.1932
     32 F         140.3499  144.8387  170.0135 F       1  UNL1       -0.1932
@<TRIPOS>BOND
     1     1     2    1
     2     2     3    2
     3     3     4    1
     4     4     5    1
     5     5     6    1
     6     4     7    1
     7     7     8   ar
     8     8     9   ar
     9     9    24    1
    10    24    25   ar
    11    25    26   ar
    12    26    27   ar
    13    27    28   ar
    14    28    30    1
    15    30    31    1
    16    30    32    1
    17    28    29   ar
    18     9    10   ar
    19    10    11   ar
    20    11    12   ar
    21    12    13    1
    22    13    14    1
    23    14    15    1
    24    15    16    1
    25    16    17    1
    26    14    18    1
    27    18    19    1
    28    19    20    1
    29    20    21    1
    30     6     2    1
    31    12     7   ar
    32    17    14    1
    33    21    18    1
    34    18     4    1
    35    29    24   ar
    36     1    22    1
    37     1    23    1
@<TRIPOS>MOLECULE
*****
 32 37 0 0 0
SMALL
GASTEIGER

@<TRIPOS>ATOM
      1 N         143.4103  143.0368  165.4543 N.pl3   1  UNL1       -0.3133
      2 C         142.4682  142.3734  164.4940 C.2     1  UNL1        0.2770
      3 N         141.3003  141.5065  164.8614 N.2     1  UNL1       -0.2202
      4 C         140.6388  141.0577  163.5923 C.3     1  UNL1        0.1580
      5 C         141.3978  141.6471  162.4404 C.3     1  UNL1        0.2351
      6 O         142.5284  142.4602  162.9978 O.2     1  UNL1       -0.4478
      7 C         139.9825  140.5409  164.8381 C.ar    1  UNL1        0.0357
      8 C         140.5346  140.9073  166.1839 C.ar    1  UNL1        0.0007
      9 C         139.8783  140.3906  167.4298 C.ar    1  UNL1        0.0014
     10 C         138.6699  139.5074  167.3299 C.ar    1  UNL1        0.0031
     11 C         138.1179  139.1410  165.9842 C.ar    1  UNL1        0.0366
     12 C         138.7742  139.6578  164.7383 C.ar    1  UNL1        0.1360
     13 O         138.2222  139.2914  163.3925 O.3     1  UNL1       -0.4826
     14 C         138.8784  139.8082  162.1467 C.3     1  UNL1        0.1395
     15 C         137.7268  138.9776  161.6629 C.3     1  UNL1        0.0404
     16 C         138.0977  139.2900  160.2434 C.3     1  UNL1        0.0072
     17 C         139.2493  140.1207  160.7272 C.3     1  UNL1        0.0404
     18 C         140.0867  140.6913  162.2465 C.3     1  UNL1        0.1141
     19 C         139.9036  140.5472  162.5941 C.3     1  UNL1        0.1501
     20 O         140.0961  140.6987  162.2288 O.3     1  UNL1       -0.3532
     21 C         139.9036  140.5472  162.5941 C.3     1  UNL1        0.1501
     22 H         143.2881  142.9195  166.4241 H       1  UNL1        0.1466
     23 H         144.1509  143.5895  165.1147 H       1  UNL1        0.1466
     24 C         140.4303  140.7569  168.7755 C.ar    1  UNL1        0.0190
     25 C         139.7717  140.2434  170.0215 C.ar    1  UNL1        0.0988
     26 N         140.3237  140.6098  171.3672 N.ar    1  UNL1       -0.2425
     27 C         141.5344  141.4897  171.4670 C.ar    1  UNL1        0.1000
     28 C         142.1931  142.0032  170.2210 C.ar    1  UNL1        0.0627
     29 C         141.6411  141.6369  168.8752 C.ar    1  UNL1        0.0042
     30 C         143.4038  142.8831  170.3208 C.3     1  UNL1        0.3425
     31 F         144.6659  142.5065  169.6030 F       1  UNL1       -0.1932
     32 F         143.3524  144.1397  171.1383 F       1  UNL1       -0.1932
@<TRIPOS>BOND
     1     1     2    1
     2     2     3    2
     3     3     4    1
     4     4     5    1
     5     5     6    1
     6     4     7    1
     7     7     8   ar
     8     8     9   ar
     9     9    24    1
    10    24    25   ar
    11    25    26   ar
    12    26    27   ar
    13    27    28   ar
    14    28    30    1
    15    30    31    1
    16    30    32    1
    17    28    29   ar
    18     9    10   ar
    19    10    11   ar
    20    11    12   ar
    21    12    13    1
    22    13    14    1
    23    14    15    1
    24    15    16    1
    25    16    17    1
    26    14    18    1
    27    18    19    1
    28    19    20    1
    29    20    21    1
    30     6     2    1
    31    12     7   ar
    32    17    14    1
    33    21    18    1
    34    18     4    1
    35    29    24   ar
    36     1    22    1
    37     1    23    1
@<TRIPOS>MOLECULE
*****
 32 37 0 0 0
SMALL
GASTEIGER

@<TRIPOS>ATOM
      1 N         137.1848  141.6046  164.0593 N.pl3   1  UNL1       -0.3133
      2 C         138.1762  140.9014  163.1803 C.2     1  UNL1        0.2770
      3 N         139.4734  140.2935  163.6251 N.2     1  UNL1       -0.2202
      4 C         140.1434  139.6990  162.4220 C.3     1  UNL1        0.1580
      5 C         139.2602  139.9394  161.2335 C.3     1  UNL1        0.2351
      6 O         138.0444  140.6825  161.7022 O.2     1  UNL1       -0.4478
      7 C         140.9180  139.5334  163.6957 C.ar    1  UNL1        0.0357
      8 C         140.3715  140.0780  164.9821 C.ar    1  UNL1        0.0007
      9 C         141.1462  139.9124  166.2558 C.ar    1  UNL1        0.0014
     10 C         142.4673  139.2021  166.2433 C.ar    1  UNL1        0.0031
     11 C         143.0138  138.6575  164.9569 C.ar    1  UNL1        0.0366
     12 C         142.2391  138.8231  163.6831 C.ar    1  UNL1        0.1360
     13 O         142.7856  138.2784  162.3968 O.3     1  UNL1       -0.4826
     14 C         142.0109  138.4440  161.1230 C.3     1  UNL1        0.1395
     15 C         143.2530  137.7013  160.7283 C.3     1  UNL1        0.0404
     16 C         142.7838  137.6737  159.3038 C.3     1  UNL1        0.0072
     17 C         141.5417  138.4165  159.6985 C.3     1  UNL1        0.0404
     18 C         140.6898  139.1543  161.1356 C.3     1  UNL1        0.1141
     19 C         140.9060  139.1081  161.4909 C.3     1  UNL1        0.1501
     20 O         140.6788  139.1566  161.1175 O.3     1  UNL1       -0.3532
     21 C         140.9060  139.1081  161.4909 C.3     1  UNL1        0.1501
     22 H         137.3615  141.6987  165.0232 H       1  UNL1        0.1466
     23 H         136.3575  141.9721  163.6722 H       1  UNL1        0.1466
     24 C         140.5997  140.4571  167.5422 C.ar    1  UNL1        0.0190
     25 C         139.5241  139.7118  168.2754 C.ar    1  UNL1        0.0988
     26 N         138.9776  140.2565  169.5617 N.ar    1  UNL1       -0.2425
     27 C         139.5068  141.5464  170.1149 C.ar    1  UNL1        0.1000
     28 C         140.5824  142.2918  169.3817 C.ar    1  UNL1        0.0627
     29 C         141.1289  141.7471  168.0953 C.ar    1  UNL1        0.0042
     30 C         141.1115  143.5817  169.9349 C.3     1  UNL1        0.3425
     31 F         140.2237  144.7888  170.0030 F       1  UNL1       -0.1932
     32 F         142.5286  143.6646  170.4199 F       1  UNL1       -0.1932
@<TRIPOS>BOND
     1     1     2    1
     2     2     3    2
     3     3     4    1
     4     4     5    1
     5     5     6    1
     6     4     7    1
     7     7     8   ar
     8     8     9   ar
     9     9    24    1
    10    24    25   ar
    11    25    26   ar
    12    26    27   ar
    13    27    28   ar
    14    28    30    1
    15    30    31    1
    16    30    32    1
    17    28    29   ar
    18     9    10   ar
    19    10    11   ar
    20    11    12   ar
    21    12    13    1
    22    13    14    1
    23    14    15    1
    24    15    16    1
    25    16    17    1
    26    14    18    1
    27    18    19    1
    28    19    20    1
    29    20    21    1
    30     6     2    1
    31    12     7   ar
    32    17    14    1
    33    21    18    1
    34    18     4    1
    35    29    24   ar
    36     1    22    1
    37     1    23    1
@<TRIPOS>MOLECULE
*****
 32 37 0 0 0
SMALL
GASTEIGER

@<TRIPOS>ATOM
      1 N         137.4013  139.2340  161.8709 N.pl3   1  UNL1       -0.3133
      2 C         137.9805  140.3738  161.0864 C.2     1  UNL1        0.2770
      3 N         138.8423  141.4729  161.6337 N.2     1  UNL1       -0.2202
      4 C         139.1940  142.3930  160.5025 C.3     1  UNL1        0.1580
      5 C         138.5496  141.8625  159.2561 C.3     1  UNL1        0.2351
      6 O         137.7997  140.6146  159.6170 O.2     1  UNL1       -0.4478
      7 C         139.7742  142.8013  161.8240 C.ar    1  UNL1        0.0357
      8 C         139.5072  141.9758  163.0477 C.ar    1  UNL1        0.0007
      9 C         140.0874  142.3842  164.3692 C.ar    1  UNL1        0.0014
     10 C         140.9347  143.6181  164.4672 C.ar    1  UNL1        0.0031
     11 C         141.2018  144.4436  163.2436 C.ar    1  UNL1        0.0366
     12 C         140.6215  144.0352  161.9220 C.ar    1  UNL1        0.1360
     13 O         140.8886  144.8607  160.6984 O.3     1  UNL1       -0.4826
     14 C         140.3083  144.4524  159.3768 C.3     1  UNL1        0.1395
     15 C         141.0800  145.7066  159.0911 C.3     1  UNL1        0.0404
     16 C         140.6860  145.6198  157.6463 C.3     1  UNL1        0.0072
     17 C         139.9144  144.3656  157.9320 C.3     1  UNL1        0.0404
     18 C         139.4611  143.2185  159.2789 C.3     1  UNL1        0.1141
     19 C         139.6229  143.3324  159.6475 C.3     1  UNL1        0.1501
     20 O         139.4528  143.2127  159.2601 O.3     1  UNL1       -0.3532
     21 C         139.6229  143.3324  159.6475 C.3     1  UNL1        0.1501
     22 H         137.5775  139.1615  162.8368 H       1  UNL1        0.1466
     23 H         136.8450  138.5585  161.4198 H       1  UNL1        0.1466
     24 C         139.8204  141.5587  165.5928 C.ar    1  UNL1        0.0190
     25 C         140.3453  142.0022  166.9261 C.ar    1  UNL1        0.0988
     26 N         140.0783  141.1767  168.1497 N.ar    1  UNL1       -0.2425
     27 C         139.2862  139.9077  168.0400 C.ar    1  UNL1        0.1000
     28 C         138.7612  139.4640  166.7067 C.ar    1  UNL1        0.0627
     29 C         139.0283  140.2895  165.4831 C.ar    1  UNL1        0.0042
     30 C         137.9692  138.1950  166.5971 C.3     1  UNL1        0.3425
     31 F         136.7883  137.9680  167.4938 F       1  UNL1       -0.1932
     32 F         138.3580  137.1527  165.5907 F       1  UNL1       -0.1932
@<TRIPOS>BOND
     1     1     2    1
     2     2     3    2
     3     3     4    1
     4     4     5    1
     5     5     6    1
     6     4     7    1
     7     7     8   ar
     8     8     9   ar
     9     9    24    1
    10    24    25   ar
    11    25    26   ar
    12    26    27   ar
    13    27    28   ar
    14    28    30    1
    15    30    31    1
    16    30    32    1
    17    28    29   ar
    18     9    10   ar
    19    10    11   ar
    20    11    12   ar
    21    12    13    1
    22    13    14    1
    23    14    15    1
    24    15    16    1
    25    16    17    1
    26    14    18    1
    27    18    19    1
    28    19    20    1
    29    20    21    1
    30     6     2    1
    31    12     7   ar
    32    17    14    1
    33    21    18    1
    34    18     4    1
    35    29    24   ar
    36     1    22    1
    37     1    23    1
@<TRIPOS>MOLECULE
*****
 32 37 0 0 0
SMALL
GASTEIGER

@<TRIPOS>ATOM
      1 N         138.6986  144.9746  165.5078 N.pl3   1  UNL1       -0.3133
      2 C         139.4382  144.7807  164.2173 C.2     1  UNL1        0.2770
      3 N         140.5925  143.8491  163.9939 N.2     1  UNL1       -0.2202
      4 C         141.0211  143.9769  162.5623 C.3     1  UNL1        0.1580
      5 C         140.1316  144.9876  161.9007 C.3     1  UNL1        0.2351
      6 O         139.1534  145.4843  162.9236 O.2     1  UNL1       -0.4478
      7 C         141.8282  142.9921  163.3551 C.ar    1  UNL1        0.0357
      8 C         141.5143  142.7582  164.8031 C.ar    1  UNL1        0.0007
      9 C         142.3215  141.7734  165.5959 C.ar    1  UNL1        0.0014
     10 C         143.4426  141.0225  164.9407 C.ar    1  UNL1        0.0031
     11 C         143.7566  141.2564  163.4927 C.ar    1  UNL1        0.0366
     12 C         142.9493  142.2413  162.6999 C.ar    1  UNL1        0.1360
     13 O         143.2632  142.4752  161.2519 O.3     1  UNL1       -0.4826
     14 C         142.4561  143.4600  160.4590 C.3     1  UNL1        0.1395
     15 C         143.4653  142.9168  159.4913 C.3     1  UNL1        0.0404
     16 C         142.9000  143.7909  158.4112 C.3     1  UNL1        0.0072
     17 C         141.8908  144.3341  159.3789 C.3     1  UNL1        0.0404
     18 C         141.3350  144.2109  161.1142 C.3     1  UNL1        0.1141
     19 C         141.5602  143.9362  161.3354 C.3     1  UNL1        0.1501
     20 O         141.3235  144.2249  161.1029 O.3     1  UNL1       -0.3532
     21 C         141.5602  143.9362  161.3354 C.3     1  UNL1        0.1501
     22 H         138.9614  144.4637  166.3073 H       1  UNL1        0.1466
     23 H         137.9504  145.6126  165.5553 H       1  UNL1        0.1466
     24 C         142.0076  141.5395  167.0439 C.ar    1  UNL1        0.0190
     25 C         142.4558  140.2744  167.7136 C.ar    1  UNL1        0.0988
     26 N         142.1419  140.0404  169.1616 N.ar    1  UNL1       -0.2425
     27 C         141.3798  141.0716  169.9399 C.ar    1  UNL1        0.1000
     28 C         140.9314  142.3368  169.2702 C.ar    1  UNL1        0.0627
     29 C         141.2454  142.5707  167.8222 C.ar    1  UNL1        0.0042
     30 C         140.1693  143.3679  170.0485 C.3     1  UNL1        0.3425
     31 F         140.5032  144.8221  169.8944 F       1  UNL1       -0.1932
     32 F         139.0731  142.9449  170.9810 F       1  UNL1       -0.1932
@<TRIPOS>BOND
     1     1     2    1
     2     2     3    2
     3     3     4    1
     4     4     5    1
     5     5     6    1
     6     4     7    1
     7     7     8   ar
     8     8     9   ar
     9     9    24    1
    10    24    25   ar
    11    25    26   ar
    12    26    27   ar
    13    27    28   ar
    14    28    30    1
    15    30    31    1
    16    30    32    1
    17    28    29   ar
    18     9    10   ar
    19    10    11   ar
    20    11    12   ar
    21    12    13    1
    22    13    14    1
    23    14    15    1
    24    15    16    1
    25    16    17    1
    26    14    18    1
    27    18    19    1
    28    19    20    1
    29    20    21    1
    30     6     2    1
    31    12     7   ar
    32    17    14    1
    33    21    18    1
    34    18     4    1
    35    29    24   ar
    36     1    22    1
    37     1    23    1
@<TRIPOS>MOLECULE
*****
 32 37 0 0 0
SMALL
GASTEIGER

@<TRIPOS>ATOM
      1 N         145.4457  141.0489  164.0830 N.pl3   1  UNL1       -0.3133
      2 C         144.6458  141.8369  163.0884 C.2     1  UNL1        0.2770
      3 N         143.3223  142.4949  163.3444 N.2     1  UNL1       -0.2202
      4 C         142.8874  143.1700  162.0775 C.3     1  UNL1        0.1580
      5 C         143.9422  142.9292  161.0385 C.3     1  UNL1        0.2351
      6 O         145.0289  142.1054  161.6633 O.2     1  UNL1       -0.4478
      7 C         141.9221  143.3270  163.2148 C.ar    1  UNL1        0.0357
      8 C         142.2239  142.7050  164.5460 C.ar    1  UNL1        0.0007
      9 C         141.2586  142.8621  165.6833 C.ar    1  UNL1        0.0014
     10 C         139.9914  143.6411  165.4894 C.ar    1  UNL1        0.0031
     11 C         139.6897  144.2631  164.1582 C.ar    1  UNL1        0.0366
     12 C         140.6551  144.1060  163.0209 C.ar    1  UNL1        0.1360
     13 O         140.3533  144.7280  161.6897 O.3     1  UNL1       -0.4826
     14 C         141.3186  144.5710  160.5524 C.3     1  UNL1        0.1395
     15 C         140.1938  145.3929  159.9962 C.3     1  UNL1        0.0404
     16 C         140.8919  145.4506  158.6697 C.3     1  UNL1        0.0072
     17 C         142.0167  144.6286  159.2259 C.3     1  UNL1        0.0404
     18 C         142.5857  143.7919  160.7463 C.3     1  UNL1        0.1141
     19 C         142.3164  143.8358  161.0636 C.3     1  UNL1        0.1501
     20 O         142.5994  143.7897  160.7301 O.3     1  UNL1       -0.3532
     21 C         142.3164  143.8358  161.0636 C.3     1  UNL1        0.1501
     22 H         145.1087  140.9272  165.0000 H       1  UNL1        0.1466
     23 H         146.3077  140.6535  163.8188 H       1  UNL1        0.1466
     24 C         141.5603  142.2401  167.0145 C.ar    1  UNL1        0.0190
     25 C         142.9457  142.3215  167.5836 C.ar    1  UNL1        0.0988
     26 N         143.2475  141.6995  168.9148 N.ar    1  UNL1       -0.2425
     27 C         142.1638  140.9961  169.6769 C.ar    1  UNL1        0.1000
     28 C         140.7783  140.9146  169.1078 C.ar    1  UNL1        0.0627
     29 C         140.4766  141.5366  167.7766 C.ar    1  UNL1        0.0042
     30 C         139.6946  140.2112  169.8699 C.3     1  UNL1        0.3425
     31 F         139.9370  139.7690  171.2825 F       1  UNL1       -0.1932
     32 F         138.3685  139.9500  169.2193 F       1  UNL1       -0.1932
@<TRIPOS>BOND
     1     1     2    1
     2     2     3    2
     3     3     4    1
     4     4     5    1
     5     5     6    1
     6     4     7    1
     7     7     8   ar
     8     8     9   ar
     9     9    24    1
    10    24    25   ar
    11    25    26   ar
    12    26    27   ar
    13    27    28   ar
    14    28    30    1
    15    30    31    1
    16    30    32    1
    17    28    29   ar
    18     9    10   ar
    19    10    11   ar
    20    11    12   ar
    21    12    13    1
    22    13    14    1
    23    14    15    1
    24    15    16    1
    25    16    17    1
    26    14    18    1
    27    18    19    1
    28    19    20    1
    29    20    21    1
    30     6     2    1
    31    12     7   ar
    32    17    14    1
    33    21    18    1
    34    18     4    1
    35    29    24   ar
    36     1    22    1
    37     1    23    1
@<TRIPOS>MOLECULE
*****
 32 37 0 0 0
SMALL
GASTEIGER

@<TRIPOS>ATOM
      1 N         138.4869  137.9891  165.5129 N.pl3   1  UNL1       -0.3133
      2 C         139.1624  138.1031  164.1785 C.2     1  UNL1        0.2770
      3 N         140.5172  138.6946  163.9237 N.2     1  UNL1       -0.2202
      4 C         140.7938  138.6027  162.4523 C.3     1  UNL1        0.1580
      5 C         139.6099  137.9545  161.7978 C.3     1  UNL1        0.2351
      6 O         138.6017  137.6458  162.8646 O.2     1  UNL1       -0.4478
      7 C         141.9004  139.2354  163.2428 C.ar    1  UNL1        0.0357
      8 C         141.7649  139.3949  164.7282 C.ar    1  UNL1        0.0007
      9 C         142.8715  140.0276  165.5186 C.ar    1  UNL1        0.0014
     10 C         144.1139  140.5009  164.8238 C.ar    1  UNL1        0.0031
     11 C         144.2494  140.3414  163.3385 C.ar    1  UNL1        0.0366
     12 C         143.1427  139.7087  162.5480 C.ar    1  UNL1        0.1360
     13 O         143.2783  139.5492  161.0627 O.3     1  UNL1       -0.4826
     14 C         142.1716  138.9165  160.2722 C.3     1  UNL1        0.1395
     15 C         143.2265  139.2552  159.2609 C.3     1  UNL1        0.0404
     16 C         142.3633  138.6909  158.1715 C.3     1  UNL1        0.0072
     17 C         141.3085  138.3522  159.1828 C.3     1  UNL1        0.0404
     18 C         140.9294  138.4432  160.9670 C.3     1  UNL1        0.1141
     19 C         141.2381  138.6198  161.1875 C.3     1  UNL1        0.1501
     20 O         140.9136  138.4342  160.9557 O.3     1  UNL1       -0.3532
     21 C         141.2381  138.6198  161.1875 C.3     1  UNL1        0.1501
     22 H         138.9381  138.3202  166.3229 H       1  UNL1        0.1466
     23 H         137.5924  137.5833  165.5788 H       1  UNL1        0.1466
     24 C         142.7360  140.1871  167.0040 C.ar    1  UNL1        0.0190
     25 C         142.9344  139.0055  167.9064 C.ar    1  UNL1        0.0988
     26 N         142.7988  139.1650  169.3917 N.ar    1  UNL1       -0.2425
     27 C         142.4648  140.5061  169.9746 C.ar    1  UNL1        0.1000
     28 C         142.2663  141.6878  169.0722 C.ar    1  UNL1        0.0627
     29 C         142.4019  141.5283  167.5869 C.ar    1  UNL1        0.0042
     30 C         141.9323  143.0289  169.6551 C.3     1  UNL1        0.3425
     31 F         140.6633  143.7238  169.2591 F       1  UNL1       -0.1932
     32 F         142.8672  143.6751  170.6341 F       1  UNL1       -0.1932
@<TRIPOS>BOND
     1     1     2    1
     2     2     3    2
     3     3     4    1
     4     4     5    1
     5     5     6    1
     6     4     7    1
     7     7     8   ar
     8     8     9   ar
     9     9    24    1
    10    24    25   ar
    11    25    26   ar
    12    26    27   ar
    13    27    28   ar
    14    28    30    1
    15    30    31    1
    16    30    32    1
    17    28    29   ar
    18     9    10   ar
    19    10    11   ar
    20    11    12   ar
    21    12    13    1
    22    13    14    1
    23    14    15    1
    24    15    16    1
    25    16    17    1
    26    14    18    1
    27    18    19    1
    28    19    20    1
    29    20    21    1
    30     6     2    1
    31    12     7   ar
    32    17    14    1
    33    21    18    1
    34    18     4    1
    35    29    24   ar
    36     1    22    1
    37     1    23    1
@<TRIPOS>MOLECULE
*****
 32 37 0 0 0
SMALL
GASTEIGER

@<TRIPOS>ATOM
      1 N         144.4657  143.4097  165.5534 N.pl3   1  UNL1       -0.3133
      2 C         144.2751  142.7352  164.2272 C.2     1  UNL1        0.2770
      3 N         143.5508  141.4429  163.9913 N.2     1  UNL1       -0.2202
      4 C         143.6033  141.1437  162.5224 C.3     1  UNL1        0.1580
      5 C         144.3600  142.2510  161.8505 C.3     1  UNL1        0.2351
      6 O         144.7751  143.2346  162.9042 O.2     1  UNL1       -0.4478
      7 C         142.8707  140.1130  163.3293 C.ar    1  UNL1        0.0357
      8 C         142.7371  140.2788  164.8141 C.ar    1  UNL1        0.0007
      9 C         142.0046  139.2481  165.6209 C.ar    1  UNL1        0.0014
     10 C         141.4055  138.0516  164.9430 C.ar    1  UNL1        0.0031
     11 C         141.5391  137.8858  163.4582 C.ar    1  UNL1        0.0366
     12 C         142.2717  138.9166  162.6513 C.ar    1  UNL1        0.1360
     13 O         142.4053  138.7508  161.1665 O.3     1  UNL1       -0.4826
     14 C         143.1379  139.7814  160.3596 C.3     1  UNL1        0.1395
     15 C         142.6887  138.7549  159.3623 C.3     1  UNL1        0.0404
     16 C         143.3268  139.5470  158.2597 C.3     1  UNL1        0.0072
     17 C         143.7760  140.5735  159.2571 C.3     1  UNL1        0.0404
     18 C         143.7368  140.9779  161.0376 C.3     1  UNL1        0.1141
     19 C         143.5325  140.6903  161.2627 C.3     1  UNL1        0.1501
     20 O         143.7473  140.9926  161.0261 O.3     1  UNL1       -0.3532
     21 C         143.5325  140.6903  161.2627 C.3     1  UNL1        0.1501
     22 H         144.0982  143.0016  166.3705 H       1  UNL1        0.1466
     23 H         144.9584  144.2604  165.6067 H       1  UNL1        0.1466
     24 C         141.8710  139.4139  167.1057 C.ar    1  UNL1        0.0190
     25 C         142.9964  139.0072  168.0101 C.ar    1  UNL1        0.0988
     26 N         142.8628  139.1730  169.4949 N.ar    1  UNL1       -0.2425
     27 C         141.6038  139.7455  170.0754 C.ar    1  UNL1        0.1000
     28 C         140.4783  140.1523  169.1710 C.ar    1  UNL1        0.0627
     29 C         140.6119  139.9865  167.6862 C.ar    1  UNL1        0.0042
     30 C         139.2192  140.7248  169.7515 C.3     1  UNL1        0.3425
     31 F         137.9774  139.8865  169.8230 F       1  UNL1       -0.1932
     32 F         139.2020  142.1357  170.2605 F       1  UNL1       -0.1932
@<TRIPOS>BOND
     1     1     2    1
     2     2     3    2
     3     3     4    1
     4     4     5    1
     5     5     6    1
     6     4     7    1
     7     7     8   ar
     8     8     9   ar
     9     9    24    1
    10    24    25   ar
    11    25    26   ar
    12    26    27   ar
    13    27    28   ar
    14    28    30    1
    15    30    31    1
    16    30    32    1
    17    28    29   ar
    18     9    10   ar
    19    10    11   ar
    20    11    12   ar
    21    12    13    1
    22    13    14    1
    23    14    15    1
    24    15    16    1
    25    16    17    1
    26    14    18    1
    27    18    19    1
    28    19    20    1
    29    20    21    1
    30     6     2    1
    31    12     7   ar
    32    17    14    1
    33    21    18    1
    34    18     4    1
    35    29    24   ar
    36     1    22    1
    37     1    23    1
@<TRIPOS>MOLECULE
*****
 32 37 0 0 0
SMALL
GASTEIGER

@<TRIPOS>ATOM
      1 N         144.0044  140.4501  161.9357 N.pl3   1  UNL1       -0.3133
      2 C         143.6906  140.1951  163.3802 C.2     1  UNL1        0.2770
      3 N         142.7237  140.9727  164.2231 N.2     1  UNL1       -0.2202
      4 C         142.7241  140.3759  165.5992 C.3     1  UNL1        0.1580
      5 C         143.6913  139.2293  165.6068 C.3     1  UNL1        0.2351
      6 O         144.2886  139.1176  164.2354 O.2     1  UNL1       -0.4478
      7 C         141.7951  141.5428  165.4406 C.ar    1  UNL1        0.0357
      8 C         141.6884  142.2421  164.1179 C.ar    1  UNL1        0.0007
      9 C         140.7593  143.4091  163.9593 C.ar    1  UNL1        0.0014
     10 C         139.9370  143.8767  165.1235 C.ar    1  UNL1        0.0031
     11 C         140.0437  143.1773  166.4462 C.ar    1  UNL1        0.0366
     12 C         140.9728  142.0103  166.6047 C.ar    1  UNL1        0.1360
     13 O         141.0795  141.3110  167.9274 O.3     1  UNL1       -0.4826
     14 C         142.0086  140.1441  168.0860 C.3     1  UNL1        0.1395
     15 C         141.3690  140.3168  169.4318 C.3     1  UNL1        0.0404
     16 C         142.1595  139.1550  169.9566 C.3     1  UNL1        0.0072
     17 C         142.7991  138.9822  168.6108 C.3     1  UNL1        0.0404
     18 C         142.8309  139.6765  166.9219 C.3     1  UNL1        0.1141
     19 C         142.5717  140.0021  166.8777 C.3     1  UNL1        0.1501
     20 O         142.8441  139.6599  166.9241 O.3     1  UNL1       -0.3532
     21 C         142.5717  140.0021  166.8777 C.3     1  UNL1        0.1501
     22 H         143.5576  141.1855  161.4574 H       1  UNL1        0.1466
     23 H         144.6571  139.8821  161.4661 H       1  UNL1        0.1466
     24 C         140.6526  144.1084  162.6366 C.ar    1  UNL1        0.0190
     25 C         139.7067  145.2608  162.4717 C.ar    1  UNL1        0.0988
     26 N         139.6000  145.9602  161.1491 N.ar    1  UNL1       -0.2425
     27 C         140.4392  145.5071  159.9913 C.ar    1  UNL1        0.1000
     28 C         141.3851  144.3547  160.1561 C.ar    1  UNL1        0.0627
     29 C         141.4918  143.6553  161.4788 C.ar    1  UNL1        0.0042
     30 C         142.2243  143.9017  158.9983 C.3     1  UNL1        0.3425
     31 F         143.5617  143.2685  159.2438 F       1  UNL1       -0.1932
     32 F         141.7260  144.0818  157.5950 F       1  UNL1       -0.1932
@<TRIPOS>BOND
     1     1     2    1
     2     2     3    2
     3     3     4    1
     4     4     5    1
     5     5     6    1
     6     4     7    1
     7     7     8   ar
     8     8     9   ar
     9     9    24    1
    10    24    25   ar
    11    25    26   ar
    12    26    27   ar
    13    27    28   ar
    14    28    30    1
    15    30    31    1
    16    30    32    1
    17    28    29   ar
    18     9    10   ar
    19    10    11   ar
    20    11    12   ar
    21    12    13    1
    22    13    14    1
    23    14    15    1
    24    15    16    1
    25    16    17    1
    26    14    18    1
    27    18    19    1
    28    19    20    1
    29    20    21    1
    30     6     2    1
    31    12     7   ar
    32    17    14    1
    33    21    18    1
    34    18     4    1
    35    29    24   ar
    36     1    22    1
    37     1    23    1
