@<TRIPOS>MOLECULE
*****
 26 29 0 0 0
SMALL
GASTEIGER

@<TRIPOS>ATOM
      1 C         138.5175  140.0984  165.8292 C.2     1  UNL1        0.1514
      2 N         139.5614  140.9606  166.4748 N.2     1  UNL1       -0.2531
      3 C         140.3707  140.4281  167.6200 C.3     1  UNL1        0.1051
      4 C         141.7426  139.8733  167.3748 C.3     1  UNL1        0.0244
      5 C         142.5520  139.3407  168.5199 C.3     1  UNL1        0.0020
      6 C         141.9894  139.3629  169.9103 C.3     1  UNL1        0.0001
      7 C         140.6175  139.9177  170.1555 C.3     1  UNL1        0.0020
      8 C         139.8082  140.4503  169.0103 C.3     1  UNL1        0.0244
      9 N         137.7081  140.6310  164.6841 N.pl3   1  UNL1       -0.3151
     10 H         136.8619  140.1943  164.4342 H       1  UNL1        0.1486
     11 C         138.1881  141.8289  163.9196 C.3     1  UNL1        0.0708
     12 C         139.1943  141.6629  162.8196 C.3     1  UNL1        0.0195
     13 C         139.6743  142.8609  162.0552 C.3     1  UNL1        0.0017
     14 C         139.1482  144.2250  162.3907 C.3     1  UNL1        0.0001
     15 C         138.1420  144.3910  163.4908 C.3     1  UNL1        0.0017
     16 C         137.6620  143.1930  164.2552 C.3     1  UNL1        0.0195
     17 S         138.2829  138.7036  166.3288 S.3     1  UNL1       -0.0744
     18 C         138.6524  137.5284  165.4730 C.3     1  UNL1        0.1066
     19 C         141.1693  137.5878  164.5748 C.2     1  UNL1        0.0494
     20 C         139.6831  137.6810  164.3940 C.2     1  UNL1        0.0484
     21 N         139.4086  137.9535  162.9447 N.pl3   1  UNL1       -0.2678
     22 C         138.3204  138.1795  161.9373 C.3     1  UNL1        0.1234
     23 C         138.9645  138.3945  160.5998 C.3     1  UNL1        0.1492
     24 N         140.4506  138.3014  160.7805 N.2     1  UNL1       -0.2486
     25 C         140.7251  138.0288  162.2298 C.2     1  UNL1        0.1623
     26 S         141.8133  137.8028  163.2372 S.3     1  UNL1       -0.0516
@<TRIPOS>BOND
     1    19    20    2
     2    20    18    1
     3    18    17    1
     4    17     1    1
     5     1     2    2
     6     2     3    1
     7     3     4    1
     8     4     5    1
     9     5     6    1
    10     6     7    1
    11     7     8    1
    12     1     9    1
    13     9    11    1
    14    11    12    1
    15    12    13    1
    16    13    14    1
    17    14    15    1
    18    15    16    1
    19    20    21    1
    20    21    22    1
    21    22    23    1
    22    23    24    1
    23    24    25    2
    24    25    26    1
    25    26    19    1
    26     8     3    1
    27    16    11    1
    28    25    21    1
    29     9    10    1
@<TRIPOS>MOLECULE
*****
 26 29 0 0 0
SMALL
GASTEIGER

@<TRIPOS>ATOM
      1 C         139.9246  139.7954  167.0510 C.2     1  UNL1        0.1514
      2 N         138.6401  139.3011  166.4546 N.2     1  UNL1       -0.2531
      3 C         138.5061  139.1688  164.9664 C.3     1  UNL1        0.1051
      4 C         138.8827  137.8837  164.2908 C.3     1  UNL1        0.0244
      5 C         138.7487  137.7513  162.8026 C.3     1  UNL1        0.0020
      6 C         138.2380  138.9043  161.9901 C.3     1  UNL1        0.0001
      7 C         137.8615  140.1894  162.6658 C.3     1  UNL1        0.0020
      8 C         137.9955  140.3217  164.1540 C.3     1  UNL1        0.0244
      9 N         140.0587  139.9276  168.5391 N.pl3   1  UNL1       -0.3151
     10 H         139.5304  139.3482  169.1344 H       1  UNL1        0.1486
     11 C         140.9976  140.9428  169.1202 C.3     1  UNL1        0.0708
     12 C         140.5202  142.3393  169.3878 C.3     1  UNL1        0.0195
     13 C         141.4593  143.3545  169.9689 C.3     1  UNL1        0.0017
     14 C         142.8757  142.9731  170.2825 C.3     1  UNL1        0.0001
     15 C         143.3531  141.5764  170.0149 C.3     1  UNL1        0.0017
     16 C         142.4140  140.5613  169.4337 C.3     1  UNL1        0.0195
     17 S         141.0752  140.1574  166.1592 S.3     1  UNL1       -0.0744
     18 C         142.0733  139.1111  165.7605 C.3     1  UNL1        0.1066
     19 C         142.7352  138.2983  163.3016 C.2     1  UNL1        0.0494
     20 C         142.8191  139.2408  164.4655 C.2     1  UNL1        0.0484
     21 N         143.7797  140.3356  164.1071 N.pl3   1  UNL1       -0.2678
     22 C         144.4253  141.5948  164.6050 C.3     1  UNL1        0.1234
     23 C         145.3340  142.1072  163.5273 C.3     1  UNL1        0.1492
     24 N         145.2502  141.1647  162.3633 N.2     1  UNL1       -0.2486
     25 C         144.2895  140.0698  162.7217 C.2     1  UNL1        0.1623
     26 S         143.6440  138.8107  162.2238 S.3     1  UNL1       -0.0516
@<TRIPOS>BOND
     1    19    20    2
     2    20    18    1
     3    18    17    1
     4    17     1    1
     5     1     2    2
     6     2     3    1
     7     3     4    1
     8     4     5    1
     9     5     6    1
    10     6     7    1
    11     7     8    1
    12     1     9    1
    13     9    11    1
    14    11    12    1
    15    12    13    1
    16    13    14    1
    17    14    15    1
    18    15    16    1
    19    20    21    1
    20    21    22    1
    21    22    23    1
    22    23    24    1
    23    24    25    2
    24    25    26    1
    25    26    19    1
    26     8     3    1
    27    16    11    1
    28    25    21    1
    29     9    10    1
@<TRIPOS>MOLECULE
*****
 26 29 0 0 0
SMALL
GASTEIGER

@<TRIPOS>ATOM
      1 C         140.8564  140.0453  165.6720 C.2     1  UNL1        0.1514
      2 N         139.5326  139.3727  165.4598 N.2     1  UNL1       -0.2531
      3 C         138.8957  139.3821  164.1017 C.3     1  UNL1        0.1051
      4 C         139.0058  138.1785  163.2133 C.3     1  UNL1        0.0244
      5 C         138.3690  138.1878  161.8552 C.3     1  UNL1        0.0020
      6 C         137.6219  139.4009  161.3856 C.3     1  UNL1        0.0001
      7 C         137.5118  140.6045  162.2739 C.3     1  UNL1        0.0020
      8 C         138.1487  140.5951  163.6320 C.3     1  UNL1        0.0244
      9 N         141.4933  140.0359  167.0300 N.pl3   1  UNL1       -0.3151
     10 H         142.2869  139.4779  167.1977 H       1  UNL1        0.1486
     11 C         140.9211  140.8767  168.1325 C.3     1  UNL1        0.0708
     12 C         139.8602  140.3142  169.0313 C.3     1  UNL1        0.0195
     13 C         139.2880  141.1551  170.1338 C.3     1  UNL1        0.0017
     14 C         139.7767  142.5586  170.3375 C.3     1  UNL1        0.0001
     15 C         140.8376  143.1211  169.4386 C.3     1  UNL1        0.0017
     16 C         141.4098  142.2802  168.3361 C.3     1  UNL1        0.0195
     17 S         141.5435  140.7273  164.5261 S.3     1  UNL1       -0.0744
     18 C         141.8427  142.1954  164.5974 C.3     1  UNL1        0.1066
     19 C         139.6758  143.5817  165.3240 C.2     1  UNL1        0.0494
     20 C         140.7521  143.1958  164.3529 C.2     1  UNL1        0.0484
     21 N         140.5462  143.9859  163.0946 N.pl3   1  UNL1       -0.2678
     22 C         141.0841  144.2357  161.7169 C.3     1  UNL1        0.1234
     23 C         140.2131  145.2643  161.0587 C.3     1  UNL1        0.1492
     24 N         139.1368  145.6502  162.0296 N.2     1  UNL1       -0.2486
     25 C         139.3427  144.8601  163.2879 C.2     1  UNL1        0.1623
     26 S         138.8048  144.6104  164.6657 S.3     1  UNL1       -0.0516
@<TRIPOS>BOND
     1    19    20    2
     2    20    18    1
     3    18    17    1
     4    17     1    1
     5     1     2    2
     6     2     3    1
     7     3     4    1
     8     4     5    1
     9     5     6    1
    10     6     7    1
    11     7     8    1
    12     1     9    1
    13     9    11    1
    14    11    12    1
    15    12    13    1
    16    13    14    1
    17    14    15    1
    18    15    16    1
    19    20    21    1
    20    21    22    1
    21    22    23    1
    22    23    24    1
    23    24    25    2
    24    25    26    1
    25    26    19    1
    26     8     3    1
    27    16    11    1
    28    25    21    1
    29     9    10    1
@<TRIPOS>MOLECULE
*****
 26 29 0 0 0
SMALL
GASTEIGER

@<TRIPOS>ATOM
      1 C         138.6463  140.0579  165.7757 C.2     1  UNL1        0.1514
      2 N         139.5902  140.9692  166.5027 N.2     1  UNL1       -0.2531
      3 C         140.4588  140.4290  167.5998 C.3     1  UNL1        0.1051
      4 C         139.9376  140.3616  169.0047 C.3     1  UNL1        0.0244
      5 C         140.8061  139.8213  170.1019 C.3     1  UNL1        0.0020
      6 C         142.1960  139.3484  169.7940 C.3     1  UNL1        0.0001
      7 C         142.7172  139.4158  168.3891 C.3     1  UNL1        0.0020
      8 C         141.8486  139.9561  167.2920 C.3     1  UNL1        0.0244
      9 N         137.7777  140.5981  164.6786 N.pl3   1  UNL1       -0.3151
     10 H         136.9227  140.1588  164.4662 H       1  UNL1        0.1486
     11 C         138.2119  141.8078  163.9052 C.3     1  UNL1        0.0708
     12 C         137.5348  143.1266  164.1333 C.3     1  UNL1        0.0195
     13 C         137.9690  144.3363  163.3599 C.3     1  UNL1        0.0017
     14 C         139.0803  144.2271  162.3583 C.3     1  UNL1        0.0001
     15 C         139.7575  142.9081  162.1303 C.3     1  UNL1        0.0017
     16 C         139.3232  141.6985  162.9037 C.3     1  UNL1        0.0195
     17 S         138.5710  138.6061  166.1459 S.3     1  UNL1       -0.0744
     18 C         138.5580  137.5582  165.0728 C.3     1  UNL1        0.1066
     19 C         138.4800  137.9418  162.4286 C.2     1  UNL1        0.0494
     20 C         139.1943  137.8380  163.7436 C.2     1  UNL1        0.0484
     21 N         140.6565  138.0631  163.4959 N.pl3   1  UNL1       -0.2678
     22 C         142.0015  138.1381  164.1555 C.3     1  UNL1        0.1234
     23 C         143.0223  138.4274  163.0952 C.3     1  UNL1        0.1492
     24 N         142.3081  138.5312  161.7802 N.2     1  UNL1       -0.2486
     25 C         140.8459  138.3060  162.0279 C.2     1  UNL1        0.1623
     26 S         139.5008  138.2310  161.3682 S.3     1  UNL1       -0.0516
@<TRIPOS>BOND
     1    19    20    2
     2    20    18    1
     3    18    17    1
     4    17     1    1
     5     1     2    2
     6     2     3    1
     7     3     4    1
     8     4     5    1
     9     5     6    1
    10     6     7    1
    11     7     8    1
    12     1     9    1
    13     9    11    1
    14    11    12    1
    15    12    13    1
    16    13    14    1
    17    14    15    1
    18    15    16    1
    19    20    21    1
    20    21    22    1
    21    22    23    1
    22    23    24    1
    23    24    25    2
    24    25    26    1
    25    26    19    1
    26     8     3    1
    27    16    11    1
    28    25    21    1
    29     9    10    1
@<TRIPOS>MOLECULE
*****
 26 29 0 0 0
SMALL
GASTEIGER

@<TRIPOS>ATOM
      1 C         142.1346  141.6984  164.9873 C.2     1  UNL1        0.1514
      2 N         141.6508  141.0550  166.2530 N.2     1  UNL1       -0.2531
      3 C         141.6804  141.8208  167.5425 C.3     1  UNL1        0.1051
      4 C         142.9121  141.8012  168.3983 C.3     1  UNL1        0.0244
      5 C         142.9418  142.5671  169.6878 C.3     1  UNL1        0.0020
      6 C         141.7396  143.3525  170.1213 C.3     1  UNL1        0.0001
      7 C         140.5079  143.3721  169.2655 C.3     1  UNL1        0.0020
      8 C         140.4783  142.6063  167.9760 C.3     1  UNL1        0.0244
      9 N         142.1050  140.9325  163.6979 N.pl3   1  UNL1       -0.3151
     10 H         142.7183  141.1752  162.9670 H       1  UNL1        0.1486
     11 C         141.1410  139.7969  163.5221 C.3     1  UNL1        0.0708
     12 C         139.6740  140.0740  163.3770 C.3     1  UNL1        0.0195
     13 C         138.7101  138.9382  163.2012 C.3     1  UNL1        0.0017
     14 C         139.2130  137.5254  163.1706 C.3     1  UNL1        0.0001
     15 C         140.6801  137.2483  163.3157 C.3     1  UNL1        0.0017
     16 C         141.6441  138.3841  163.4915 C.3     1  UNL1        0.0195
     17 S         142.6480  143.1076  165.0110 S.3     1  UNL1       -0.0744
     18 C         141.9392  144.1772  164.2341 C.3     1  UNL1        0.1066
     19 C         139.3582  144.3926  164.8953 C.2     1  UNL1        0.0494
     20 C         140.4718  144.0504  163.9503 C.2     1  UNL1        0.0484
     21 N         139.8603  143.5591  162.6718 N.pl3   1  UNL1       -0.2678
     22 C         140.1706  143.0440  161.2976 C.3     1  UNL1        0.1234
     23 C         138.8709  142.7642  160.6031 C.3     1  UNL1        0.1492
     24 N         137.7573  143.1064  161.5480 N.2     1  UNL1       -0.2486
     25 C         138.3688  143.5977  162.8265 C.2     1  UNL1        0.1623
     26 S         138.0585  144.1128  164.2007 S.3     1  UNL1       -0.0516
@<TRIPOS>BOND
     1    19    20    2
     2    20    18    1
     3    18    17    1
     4    17     1    1
     5     1     2    2
     6     2     3    1
     7     3     4    1
     8     4     5    1
     9     5     6    1
    10     6     7    1
    11     7     8    1
    12     1     9    1
    13     9    11    1
    14    11    12    1
    15    12    13    1
    16    13    14    1
    17    14    15    1
    18    15    16    1
    19    20    21    1
    20    21    22    1
    21    22    23    1
    22    23    24    1
    23    24    25    2
    24    25    26    1
    25    26    19    1
    26     8     3    1
    27    16    11    1
    28    25    21    1
    29     9    10    1
@<TRIPOS>MOLECULE
*****
 26 29 0 0 0
SMALL
GASTEIGER

@<TRIPOS>ATOM
      1 C         141.0719  139.5658  166.2513 C.2     1  UNL1        0.1514
      2 N         139.6345  139.1802  166.0634 N.2     1  UNL1       -0.2531
      3 C         139.0386  139.1547  164.6870 C.3     1  UNL1        0.1051
      4 C         138.3274  140.3635  164.1551 C.3     1  UNL1        0.0244
      5 C         137.7315  140.3381  162.7788 C.3     1  UNL1        0.0020
      6 C         137.8468  139.1036  161.9344 C.3     1  UNL1        0.0001
      7 C         138.5580  137.8948  162.4663 C.3     1  UNL1        0.0020
      8 C         139.1539  137.9204  163.8426 C.3     1  UNL1        0.0244
      9 N         141.6678  139.5913  167.6276 N.pl3   1  UNL1       -0.3151
     10 H         142.0632  138.7739  168.0081 H       1  UNL1        0.1486
     11 C         141.6612  140.8622  168.4242 C.3     1  UNL1        0.0708
     12 C         142.9282  141.3581  169.0558 C.3     1  UNL1        0.0195
     13 C         142.9215  142.6290  169.8524 C.3     1  UNL1        0.0017
     14 C         141.6480  143.4042  170.0174 C.3     1  UNL1        0.0001
     15 C         140.3810  142.9083  169.3858 C.3     1  UNL1        0.0017
     16 C         140.3876  141.6373  168.5892 C.3     1  UNL1        0.0195
     17 S         141.9134  139.9258  165.0628 S.3     1  UNL1       -0.0744
     18 C         142.2771  141.3585  164.8077 C.3     1  UNL1        0.1066
     19 C         141.4440  142.2345  162.4237 C.2     1  UNL1        0.0494
     20 C         141.4115  142.2059  163.9231 C.2     1  UNL1        0.0484
     21 N         140.3614  143.1735  164.3826 N.pl3   1  UNL1       -0.2678
     22 C         139.6924  143.7538  165.5932 C.3     1  UNL1        0.1234
     23 C         138.6624  144.7391  165.1260 C.3     1  UNL1        0.1492
     24 N         138.6949  144.7677  163.6266 N.2     1  UNL1       -0.2486
     25 C         139.7449  143.8001  163.1671 C.2     1  UNL1        0.1623
     26 S         140.4140  143.2198  161.9565 S.3     1  UNL1       -0.0516
@<TRIPOS>BOND
     1    19    20    2
     2    20    18    1
     3    18    17    1
     4    17     1    1
     5     1     2    2
     6     2     3    1
     7     3     4    1
     8     4     5    1
     9     5     6    1
    10     6     7    1
    11     7     8    1
    12     1     9    1
    13     9    11    1
    14    11    12    1
    15    12    13    1
    16    13    14    1
    17    14    15    1
    18    15    16    1
    19    20    21    1
    20    21    22    1
    21    22    23    1
    22    23    24    1
    23    24    25    2
    24    25    26    1
    25    26    19    1
    26     8     3    1
    27    16    11    1
    28    25    21    1
    29     9    10    1
@<TRIPOS>MOLECULE
*****
 26 29 0 0 0
SMALL
GASTEIGER

@<TRIPOS>ATOM
      1 C         139.7745  141.1037  165.2054 C.2     1  UNL1        0.1514
      2 N         139.7062  142.5526  165.5875 N.2     1  UNL1       -0.2531
      3 C         140.0123  143.6117  164.5703 C.3     1  UNL1        0.1051
      4 C         138.9128  144.1742  163.7190 C.3     1  UNL1        0.0244
      5 C         139.2189  145.2332  162.7018 C.3     1  UNL1        0.0020
      6 C         140.6246  145.7299  162.5359 C.3     1  UNL1        0.0001
      7 C         141.7241  145.1674  163.3873 C.3     1  UNL1        0.0020
      8 C         141.4180  144.1083  164.4044 C.3     1  UNL1        0.0244
      9 N         139.4684  140.0446  166.2226 N.pl3   1  UNL1       -0.3151
     10 H         138.7743  139.3712  166.0385 H       1  UNL1        0.1486
     11 C         140.2198  140.0116  167.5204 C.3     1  UNL1        0.0708
     12 C         141.7047  139.7996  167.5221 C.3     1  UNL1        0.0195
     13 C         142.4561  139.7666  168.8199 C.3     1  UNL1        0.0017
     14 C         141.7226  139.9457  170.1160 C.3     1  UNL1        0.0001
     15 C         140.2376  140.1578  170.1143 C.3     1  UNL1        0.0017
     16 C         139.4862  140.1908  168.8165 C.3     1  UNL1        0.0195
     17 S         140.1490  140.7138  163.8062 S.3     1  UNL1       -0.0744
     18 C         141.0861  139.5661  163.5728 C.3     1  UNL1        0.1066
     19 C         143.5232  138.9813  164.5022 C.2     1  UNL1        0.0494
     20 C         142.5684  139.7777  163.6630 C.2     1  UNL1        0.0484
     21 N         143.3560  140.8229  162.9301 N.pl3   1  UNL1       -0.2678
     22 C         143.2526  141.9611  161.9586 C.3     1  UNL1        0.1234
     23 C         144.6304  142.5141  161.7442 C.3     1  UNL1        0.1492
     24 N         145.5853  141.7177  162.5833 N.2     1  UNL1       -0.2486
     25 C         144.7976  140.6725  163.3162 C.2     1  UNL1        0.1623
     26 S         144.9010  139.5344  164.2878 S.3     1  UNL1       -0.0516
@<TRIPOS>BOND
     1    19    20    2
     2    20    18    1
     3    18    17    1
     4    17     1    1
     5     1     2    2
     6     2     3    1
     7     3     4    1
     8     4     5    1
     9     5     6    1
    10     6     7    1
    11     7     8    1
    12     1     9    1
    13     9    11    1
    14    11    12    1
    15    12    13    1
    16    13    14    1
    17    14    15    1
    18    15    16    1
    19    20    21    1
    20    21    22    1
    21    22    23    1
    22    23    24    1
    23    24    25    2
    24    25    26    1
    25    26    19    1
    26     8     3    1
    27    16    11    1
    28    25    21    1
    29     9    10    1
@<TRIPOS>MOLECULE
*****
 26 29 0 0 0
SMALL
GASTEIGER

@<TRIPOS>ATOM
      1 C         140.8254  139.6360  166.2018 C.2     1  UNL1        0.1514
      2 N         139.3833  139.3042  165.9568 N.2     1  UNL1       -0.2531
      3 C         138.8556  139.2431  164.5539 C.3     1  UNL1        0.1051
      4 C         138.2053  140.4493  163.9440 C.3     1  UNL1        0.0244
      5 C         137.6776  140.3882  162.5412 C.3     1  UNL1        0.0020
      6 C         137.8003  139.1208  161.7483 C.3     1  UNL1        0.0001
      7 C         138.4506  137.9145  162.3583 C.3     1  UNL1        0.0020
      8 C         138.9783  137.9757  163.7611 C.3     1  UNL1        0.0244
      9 N         141.3531  139.6971  167.6046 N.pl3   1  UNL1       -0.3151
     10 H         141.9541  138.9912  167.9357 H       1  UNL1        0.1486
     11 C         140.9649  140.8338  168.5030 C.3     1  UNL1        0.0708
     12 C         140.7982  140.6028  169.9756 C.3     1  UNL1        0.0195
     13 C         140.4100  141.7396  170.8740 C.3     1  UNL1        0.0017
     14 C         140.1885  143.1075  170.2997 C.3     1  UNL1        0.0001
     15 C         140.3552  143.3385  168.8269 C.3     1  UNL1        0.0017
     16 C         140.7434  142.2017  167.9286 C.3     1  UNL1        0.0195
     17 S         141.7400  139.9066  165.0440 S.3     1  UNL1       -0.0744
     18 C         143.1261  140.4251  165.2885 C.3     1  UNL1        0.1066
     19 C         144.8775  140.8044  163.3051 C.2     1  UNL1        0.0494
     20 C         143.8067  141.2655  164.2489 C.2     1  UNL1        0.0484
     21 N         143.5360  142.7144  163.9707 N.pl3   1  UNL1       -0.2678
     22 C         142.7069  143.8948  164.3822 C.3     1  UNL1        0.1234
     23 C         143.0980  145.0587  163.5206 C.3     1  UNL1        0.1492
     24 N         144.1688  144.5977  162.5767 N.2     1  UNL1       -0.2486
     25 C         144.4395  143.1488  162.8549 C.2     1  UNL1        0.1623
     26 S         145.2686  141.9684  162.4435 S.3     1  UNL1       -0.0516
@<TRIPOS>BOND
     1    19    20    2
     2    20    18    1
     3    18    17    1
     4    17     1    1
     5     1     2    2
     6     2     3    1
     7     3     4    1
     8     4     5    1
     9     5     6    1
    10     6     7    1
    11     7     8    1
    12     1     9    1
    13     9    11    1
    14    11    12    1
    15    12    13    1
    16    13    14    1
    17    14    15    1
    18    15    16    1
    19    20    21    1
    20    21    22    1
    21    22    23    1
    22    23    24    1
    23    24    25    2
    24    25    26    1
    25    26    19    1
    26     8     3    1
    27    16    11    1
    28    25    21    1
    29     9    10    1
@<TRIPOS>MOLECULE
*****
 26 29 0 0 0
SMALL
GASTEIGER

@<TRIPOS>ATOM
      1 C         142.2883  140.0793  166.7342 C.2     1  UNL1        0.1514
      2 N         142.8163  138.8005  166.1548 N.2     1  UNL1       -0.2531
      3 C         142.4827  138.4233  164.7418 C.3     1  UNL1        0.1051
      4 C         143.3991  138.8211  163.6230 C.3     1  UNL1        0.0244
      5 C         143.0655  138.4440  162.2100 C.3     1  UNL1        0.0020
      6 C         141.8153  137.6688  161.9159 C.3     1  UNL1        0.0001
      7 C         140.8989  137.2710  163.0348 C.3     1  UNL1        0.0020
      8 C         141.2326  137.6482  164.4477 C.3     1  UNL1        0.0244
      9 N         142.6220  140.4565  168.1472 N.pl3   1  UNL1       -0.3151
     10 H         143.4703  140.1593  168.5488 H       1  UNL1        0.1486
     11 C         141.6632  141.2866  168.9481 C.3     1  UNL1        0.0708
     12 C         141.9280  142.7486  169.1545 C.3     1  UNL1        0.0195
     13 C         140.9691  143.5786  169.9555 C.3     1  UNL1        0.0017
     14 C         139.7455  142.9468  170.5501 C.3     1  UNL1        0.0001
     15 C         139.4807  141.4848  170.3437 C.3     1  UNL1        0.0017
     16 C         140.4396  140.6547  169.5427 C.3     1  UNL1        0.0195
     17 S         141.4266  140.9810  165.9008 S.3     1  UNL1       -0.0744
     18 C         139.9328  140.8640  165.9688 C.3     1  UNL1        0.1066
     19 C         138.2445  140.2696  163.9835 C.2     1  UNL1        0.0494
     20 C         139.0977  141.2171  164.7738 C.2     1  UNL1        0.0484
     21 N         138.9691  142.5794  164.1594 N.pl3   1  UNL1       -0.2678
     22 C         139.4170  144.0068  164.2681 C.3     1  UNL1        0.1234
     23 C         138.7611  144.7836  163.1652 C.3     1  UNL1        0.1492
     24 N         137.9079  143.8363  162.3749 N.2     1  UNL1       -0.2486
     25 C         138.0365  142.4740  162.9893 C.2     1  UNL1        0.1623
     26 S         137.5886  141.0465  162.8806 S.3     1  UNL1       -0.0516
@<TRIPOS>BOND
     1    19    20    2
     2    20    18    1
     3    18    17    1
     4    17     1    1
     5     1     2    2
     6     2     3    1
     7     3     4    1
     8     4     5    1
     9     5     6    1
    10     6     7    1
    11     7     8    1
    12     1     9    1
    13     9    11    1
    14    11    12    1
    15    12    13    1
    16    13    14    1
    17    14    15    1
    18    15    16    1
    19    20    21    1
    20    21    22    1
    21    22    23    1
    22    23    24    1
    23    24    25    2
    24    25    26    1
    25    26    19    1
    26     8     3    1
    27    16    11    1
    28    25    21    1
    29     9    10    1
