@<TRIPOS>MOLECULE
*****
 35 39 0 0 0
SMALL
GASTEIGER

@<TRIPOS>ATOM
      1 C         139.5230  139.8152  165.6462 C.3     1  UNL1        0.2466
      2 N         138.4991  138.7315  165.8112 N.2     1  UNL1       -0.0598
      3 C         138.0499  138.7323  167.2424 C.2     1  UNL1        0.3157
      4 N         137.0330  137.8107  167.8478 N.pl3   1  UNL1       -0.2464
      5 C         138.7962  139.8165  167.9619 C.ar    1  UNL1        0.1095
      6 C         138.7643  140.2807  169.3878 C.ar    1  UNL1        0.1470
      7 F         137.8539  139.6114  170.3743 F       1  UNL1       -0.2039
      8 C         139.6429  141.4143  169.8273 C.ar    1  UNL1        0.0299
      9 C         140.5533  142.0836  168.8408 C.ar    1  UNL1        0.0021
     10 C         140.5851  141.6193  167.4148 C.ar    1  UNL1        0.0008
     11 C         139.7066  140.4858  166.9754 C.ar    1  UNL1        0.0405
     12 H         136.5949  137.1271  167.2910 H       1  UNL1        0.2884
     13 H         136.8037  137.8894  168.8020 H       1  UNL1        0.2884
     14 C         139.6186  138.4223  161.3683 C.ar    1  UNL1        0.1481
     15 C         140.8239  138.2421  162.2428 C.ar    1  UNL1        0.0146
     16 C         142.0610  137.5977  161.6913 C.3     1  UNL1        0.0343
     17 C         140.7920  138.7064  163.6687 C.ar    1  UNL1        0.0183
     18 C         139.5548  139.3509  164.2202 C.ar    1  UNL1        0.1105
     19 N         138.3495  139.5310  163.3457 N.ar    1  UNL1       -0.2462
     20 C         138.3814  139.0667  161.9198 C.ar    1  UNL1        0.0926
     21 C         137.1760  139.2468  161.0452 C.3     1  UNL1        0.0553
     22 C         140.0941  138.8948  158.8582 C.3     1  UNL1        0.2525
     23 O         139.6504  137.9579  159.9423 O.3     1  UNL1       -0.4706
     24 C         140.5535  140.8018  165.1831 C.ar    1  UNL1        0.0312
     25 C         141.9598  140.7147  165.6975 C.ar    1  UNL1        0.0004
     26 C         142.9904  141.7014  165.2343 C.ar    1  UNL1       -0.0002
     27 C         142.6146  142.7752  164.2567 C.ar    1  UNL1        0.0001
     28 C         141.2082  142.8624  163.7423 C.ar    1  UNL1        0.0028
     29 C         140.1777  141.8757  164.2054 C.ar    1  UNL1        0.0005
     30 C         140.8324  143.9362  162.7647 C.ar    1  UNL1        0.0384
     31 C         141.7342  144.2450  161.6065 C.ar    1  UNL1        0.1022
     32 N         141.3585  145.3188  160.6289 N.ar    1  UNL1       -0.2224
     33 C         140.0809  146.0837  160.8094 C.ar    1  UNL1        0.1989
     34 N         139.1790  145.7748  161.9676 N.ar    1  UNL1       -0.2224
     35 C         139.5548  144.7011  162.9452 C.ar    1  UNL1        0.1022
@<TRIPOS>BOND
     1    22    23    1
     2    23    14    1
     3    14    15   ar
     4    15    16    1
     5    15    17   ar
     6    17    18   ar
     7    18     1    1
     8     1    24    1
     9    24    25   ar
    10    25    26   ar
    11    26    27   ar
    12    27    28   ar
    13    28    30    1
    14    30    31   ar
    15    31    32   ar
    16    32    33   ar
    17    33    34   ar
    18    34    35   ar
    19    28    29   ar
    20     1     2    1
    21     2     3    2
    22     3     4    1
    23     3     5    1
    24     5     6   ar
    25     6     7    1
    26     6     8   ar
    27     8     9   ar
    28     9    10   ar
    29    10    11   ar
    30    18    19   ar
    31    19    20   ar
    32    20    21    1
    33    20    14   ar
    34    11     1    1
    35    29    24   ar
    36    11     5   ar
    37    35    30   ar
    38     4    12    1
    39     4    13    1
@<TRIPOS>MOLECULE
*****
 35 39 0 0 0
SMALL
GASTEIGER

@<TRIPOS>ATOM
      1 C         141.6539  139.2549  165.3130 C.3     1  UNL1        0.2466
      2 N         142.8578  138.3603  165.3333 N.2     1  UNL1       -0.0598
      3 C         143.3362  138.2593  166.7514 C.2     1  UNL1        0.3157
      4 N         144.5158  137.4655  167.2295 N.pl3   1  UNL1       -0.2464
      5 C         142.4282  139.0916  167.6074 C.ar    1  UNL1        0.1095
      6 C         142.4137  139.3686  169.0815 C.ar    1  UNL1        0.1470
      7 F         143.4535  138.7533  169.9705 F       1  UNL1       -0.2039
      8 C         141.3595  140.2609  169.6666 C.ar    1  UNL1        0.0299
      9 C         140.3198  140.8762  168.7776 C.ar    1  UNL1        0.0021
     10 C         140.3342  140.5992  167.3035 C.ar    1  UNL1        0.0008
     11 C         141.3884  139.7069  166.7184 C.ar    1  UNL1        0.0405
     12 H         145.0538  136.9481  166.5876 H       1  UNL1        0.2884
     13 H         144.7519  137.4619  168.1853 H       1  UNL1        0.2884
     14 C         141.6975  138.4237  160.8906 C.ar    1  UNL1        0.1481
     15 C         142.9701  138.7828  161.5988 C.ar    1  UNL1        0.0146
     16 C         144.2572  138.8649  160.8329 C.3     1  UNL1        0.0343
     17 C         142.9555  139.0599  163.0729 C.ar    1  UNL1        0.0183
     18 C         141.6684  138.9778  163.8388 C.ar    1  UNL1        0.1105
     19 N         140.3958  138.6187  163.1306 N.ar    1  UNL1       -0.2462
     20 C         140.4104  138.3417  161.6565 C.ar    1  UNL1        0.0926
     21 C         139.1378  137.9826  160.9483 C.3     1  UNL1        0.0553
     22 C         141.5037  139.2667  158.4407 C.3     1  UNL1        0.2525
     23 O         141.7120  138.1467  159.4165 O.3     1  UNL1       -0.4706
     24 C         140.4531  140.0916  164.9844 C.ar    1  UNL1        0.0312
     25 C         139.0783  139.5959  165.3224 C.ar    1  UNL1        0.0004
     26 C         137.8775  140.4327  164.9938 C.ar    1  UNL1       -0.0002
     27 C         138.0515  141.7651  164.3272 C.ar    1  UNL1        0.0001
     28 C         139.4263  142.2608  163.9892 C.ar    1  UNL1        0.0028
     29 C         140.6271  141.4241  164.3178 C.ar    1  UNL1        0.0005
     30 C         139.6003  143.5932  163.3226 C.ar    1  UNL1        0.0384
     31 C         138.4172  144.2896  162.7182 C.ar    1  UNL1        0.1022
     32 N         138.5911  145.6221  162.0516 N.ar    1  UNL1       -0.2224
     33 C         139.9481  146.2581  161.9894 C.ar    1  UNL1        0.1989
     34 N         141.1312  145.5617  162.5939 N.ar    1  UNL1       -0.2224
     35 C         140.9573  144.2293  163.2605 C.ar    1  UNL1        0.1022
@<TRIPOS>BOND
     1    22    23    1
     2    23    14    1
     3    14    15   ar
     4    15    16    1
     5    15    17   ar
     6    17    18   ar
     7    18     1    1
     8     1    24    1
     9    24    25   ar
    10    25    26   ar
    11    26    27   ar
    12    27    28   ar
    13    28    30    1
    14    30    31   ar
    15    31    32   ar
    16    32    33   ar
    17    33    34   ar
    18    34    35   ar
    19    28    29   ar
    20     1     2    1
    21     2     3    2
    22     3     4    1
    23     3     5    1
    24     5     6   ar
    25     6     7    1
    26     6     8   ar
    27     8     9   ar
    28     9    10   ar
    29    10    11   ar
    30    18    19   ar
    31    19    20   ar
    32    20    21    1
    33    20    14   ar
    34    11     1    1
    35    29    24   ar
    36    11     5   ar
    37    35    30   ar
    38     4    12    1
    39     4    13    1
@<TRIPOS>MOLECULE
*****
 35 39 0 0 0
SMALL
GASTEIGER

@<TRIPOS>ATOM
      1 C         142.4858  143.2139  159.8417 C.3     1  UNL1        0.2466
      2 N         141.9502  143.8593  158.5981 N.2     1  UNL1       -0.0598
      3 C         141.0056  144.9488  159.0113 C.2     1  UNL1        0.3157
      4 N         140.2430  145.8519  158.0877 N.pl3   1  UNL1       -0.2464
      5 C         140.9574  144.9768  160.5102 C.ar    1  UNL1        0.1095
      6 C         140.1987  145.8400  161.4741 C.ar    1  UNL1        0.1470
      7 F         139.2839  146.9123  160.9609 F       1  UNL1       -0.2039
      8 C         140.3548  145.6311  162.9512 C.ar    1  UNL1        0.0299
      9 C         141.2697  144.5588  163.4645 C.ar    1  UNL1        0.0021
     10 C         142.0283  143.6956  162.5006 C.ar    1  UNL1        0.0008
     11 C         141.8722  143.9045  161.0235 C.ar    1  UNL1        0.0405
     12 H         140.3415  145.7557  157.1128 H       1  UNL1        0.2884
     13 H         139.6441  146.5407  158.4563 H       1  UNL1        0.2884
     14 C         144.7618  140.6241  156.9499 C.ar    1  UNL1        0.1481
     15 C         143.4476  140.1565  157.5014 C.ar    1  UNL1        0.0146
     16 C         142.8920  138.8256  157.0889 C.3     1  UNL1        0.0343
     17 C         142.6890  141.0198  158.4653 C.ar    1  UNL1        0.0183
     18 C         143.2445  142.3507  158.8777 C.ar    1  UNL1        0.1105
     19 N         144.5587  142.8183  158.3262 N.ar    1  UNL1       -0.2462
     20 C         145.3173  141.9550  157.3623 C.ar    1  UNL1        0.0926
     21 C         146.6316  142.4226  156.8107 C.3     1  UNL1        0.0553
     22 C         145.2543  139.8677  154.5136 C.3     1  UNL1        0.2525
     23 O         145.5205  139.7608  155.9859 O.3     1  UNL1       -0.4706
     24 C         143.1800  142.3881  160.8838 C.ar    1  UNL1        0.0312
     25 C         144.5683  142.7477  161.3235 C.ar    1  UNL1        0.0004
     26 C         145.2625  141.9217  162.3656 C.ar    1  UNL1       -0.0002
     27 C         144.5684  140.7362  162.9680 C.ar    1  UNL1        0.0001
     28 C         143.1801  140.3766  162.5283 C.ar    1  UNL1        0.0028
     29 C         142.4859  141.2025  161.4862 C.ar    1  UNL1        0.0005
     30 C         142.4860  139.1912  163.1307 C.ar    1  UNL1        0.0384
     31 C         142.6518  138.8867  164.5900 C.ar    1  UNL1        0.1022
     32 N         141.9578  137.7013  165.1925 N.ar    1  UNL1       -0.2224
     33 C         141.0979  136.8202  164.3356 C.ar    1  UNL1        0.1989
     34 N         140.9321  137.1247  162.8761 N.ar    1  UNL1       -0.2224
     35 C         141.6261  138.3101  162.2737 C.ar    1  UNL1        0.1022
@<TRIPOS>BOND
     1    22    23    1
     2    23    14    1
     3    14    15   ar
     4    15    16    1
     5    15    17   ar
     6    17    18   ar
     7    18     1    1
     8     1    24    1
     9    24    25   ar
    10    25    26   ar
    11    26    27   ar
    12    27    28   ar
    13    28    30    1
    14    30    31   ar
    15    31    32   ar
    16    32    33   ar
    17    33    34   ar
    18    34    35   ar
    19    28    29   ar
    20     1     2    1
    21     2     3    2
    22     3     4    1
    23     3     5    1
    24     5     6   ar
    25     6     7    1
    26     6     8   ar
    27     8     9   ar
    28     9    10   ar
    29    10    11   ar
    30    18    19   ar
    31    19    20   ar
    32    20    21    1
    33    20    14   ar
    34    11     1    1
    35    29    24   ar
    36    11     5   ar
    37    35    30   ar
    38     4    12    1
    39     4    13    1
@<TRIPOS>MOLECULE
*****
 35 39 0 0 0
SMALL
GASTEIGER

@<TRIPOS>ATOM
      1 C         140.5423  140.3144  166.1173 C.3     1  UNL1        0.2466
      2 N         140.8732  141.2835  167.2133 N.2     1  UNL1       -0.0598
      3 C         139.9398  141.0244  168.3586 C.2     1  UNL1        0.3157
      4 N         139.9180  141.7646  169.6630 N.pl3   1  UNL1       -0.2464
      5 C         139.0320  139.8952  167.9704 C.ar    1  UNL1        0.1095
      6 C         137.9144  139.2098  168.6992 C.ar    1  UNL1        0.1470
      7 F         137.5421  139.6486  170.0844 F       1  UNL1       -0.2039
      8 C         137.1692  138.0856  168.0429 C.ar    1  UNL1        0.0299
      9 C         137.5416  137.6468  166.6577 C.ar    1  UNL1        0.0021
     10 C         138.6592  138.3321  165.9288 C.ar    1  UNL1        0.0008
     11 C         139.4044  139.4563  166.5852 C.ar    1  UNL1        0.0405
     12 H         140.5576  142.4953  169.8252 H       1  UNL1        0.2884
     13 H         139.2640  141.5198  170.3570 H       1  UNL1        0.2884
     14 C         143.8950  142.3707  163.9308 C.ar    1  UNL1        0.1481
     15 C         142.6269  143.1142  164.2290 C.ar    1  UNL1        0.0146
     16 C         142.4763  144.5431  163.7983 C.3     1  UNL1        0.0343
     17 C         141.5093  142.4288  164.9578 C.ar    1  UNL1        0.0183
     18 C         141.6599  140.9998  165.3885 C.ar    1  UNL1        0.1105
     19 N         142.9281  140.2563  165.0903 N.ar    1  UNL1       -0.2462
     20 C         144.0456  140.9418  164.3615 C.ar    1  UNL1        0.0926
     21 C         145.3139  140.1983  164.0632 C.3     1  UNL1        0.0553
     22 C         145.0740  143.0047  161.7041 C.3     1  UNL1        0.2525
     23 O         145.0126  143.0561  163.2019 O.3     1  UNL1       -0.4706
     24 C         140.4450  139.4886  164.8689 C.ar    1  UNL1        0.0312
     25 C         140.8996  138.0591  164.8780 C.ar    1  UNL1        0.0004
     26 C         140.8023  137.2332  163.6295 C.ar    1  UNL1       -0.0002
     27 C         140.2505  137.8369  162.3720 C.ar    1  UNL1        0.0001
     28 C         139.7959  139.2663  162.3630 C.ar    1  UNL1        0.0028
     29 C         139.8932  140.0922  163.6114 C.ar    1  UNL1        0.0005
     30 C         139.2441  139.8700  161.1056 C.ar    1  UNL1        0.0384
     31 C         138.8977  141.3288  161.0633 C.ar    1  UNL1        0.1022
     32 N         138.3459  141.9325  159.8059 N.ar    1  UNL1       -0.2224
     33 C         138.1405  141.0773  158.5908 C.ar    1  UNL1        0.1989
     34 N         138.4870  139.6184  158.6331 N.ar    1  UNL1       -0.2224
     35 C         139.0387  139.0148  159.8905 C.ar    1  UNL1        0.1022
@<TRIPOS>BOND
     1    22    23    1
     2    23    14    1
     3    14    15   ar
     4    15    16    1
     5    15    17   ar
     6    17    18   ar
     7    18     1    1
     8     1    24    1
     9    24    25   ar
    10    25    26   ar
    11    26    27   ar
    12    27    28   ar
    13    28    30    1
    14    30    31   ar
    15    31    32   ar
    16    32    33   ar
    17    33    34   ar
    18    34    35   ar
    19    28    29   ar
    20     1     2    1
    21     2     3    2
    22     3     4    1
    23     3     5    1
    24     5     6   ar
    25     6     7    1
    26     6     8   ar
    27     8     9   ar
    28     9    10   ar
    29    10    11   ar
    30    18    19   ar
    31    19    20   ar
    32    20    21    1
    33    20    14   ar
    34    11     1    1
    35    29    24   ar
    36    11     5   ar
    37    35    30   ar
    38     4    12    1
    39     4    13    1
@<TRIPOS>MOLECULE
*****
 35 39 0 0 0
SMALL
GASTEIGER

@<TRIPOS>ATOM
      1 C         141.8347  141.4540  166.9316 C.3     1  UNL1        0.2466
      2 N         142.8046  142.3301  167.6676 N.2     1  UNL1       -0.0598
      3 C         142.3407  142.4425  169.0896 C.2     1  UNL1        0.3157
      4 N         143.0150  143.2242  170.1778 N.pl3   1  UNL1       -0.2464
      5 C         141.0841  141.6359  169.2324 C.ar    1  UNL1        0.1095
      6 C         140.1842  141.3788  170.4046 C.ar    1  UNL1        0.1470
      7 F         140.4970  141.9897  171.7384 F       1  UNL1       -0.2039
      8 C         138.9716  140.5108  170.2430 C.ar    1  UNL1        0.0299
      9 C         138.6589  139.8999  168.9093 C.ar    1  UNL1        0.0021
     10 C         139.5588  140.1570  167.7371 C.ar    1  UNL1        0.0008
     11 C         140.7713  141.0250  167.8986 C.ar    1  UNL1        0.0405
     12 H         143.8407  143.7246  169.9853 H       1  UNL1        0.2884
     13 H         142.6319  143.2369  171.0847 H       1  UNL1        0.2884
     14 C         144.5344  142.2253  163.4150 C.ar    1  UNL1        0.1481
     15 C         144.3942  140.8358  163.9622 C.ar    1  UNL1        0.0146
     16 C         145.1538  139.7033  163.3373 C.3     1  UNL1        0.0343
     17 C         143.4943  140.5787  165.1344 C.ar    1  UNL1        0.0183
     18 C         142.7346  141.7112  165.7593 C.ar    1  UNL1        0.1105
     19 N         142.8749  143.1007  165.2120 N.ar    1  UNL1       -0.2462
     20 C         143.7748  143.3577  164.0399 C.ar    1  UNL1        0.0926
     21 C         143.9151  144.7473  163.4925 C.3     1  UNL1        0.0553
     22 C         144.8671  142.5146  160.8545 C.3     1  UNL1        0.2525
     23 O         145.4344  142.4824  162.2427 O.3     1  UNL1       -0.4706
     24 C         141.0529  140.6318  165.9504 C.ar    1  UNL1        0.0312
     25 C         140.8416  139.1677  166.1992 C.ar    1  UNL1        0.0004
     26 C         140.0598  138.3454  165.2180 C.ar    1  UNL1       -0.0002
     27 C         139.4893  138.9872  163.9881 C.ar    1  UNL1        0.0001
     28 C         139.7006  140.4512  163.7393 C.ar    1  UNL1        0.0028
     29 C         140.4824  141.2735  164.7205 C.ar    1  UNL1        0.0005
     30 C         139.1301  141.0930  162.5094 C.ar    1  UNL1        0.0384
     31 C         138.3334  142.3587  162.6248 C.ar    1  UNL1        0.1022
     32 N         137.7629  143.0006  161.3950 N.ar    1  UNL1       -0.2224
     33 C         137.9891  142.3768  160.0497 C.ar    1  UNL1        0.1989
     34 N         138.7858  141.1110  159.9344 N.ar    1  UNL1       -0.2224
     35 C         139.3563  140.4692  161.1642 C.ar    1  UNL1        0.1022
@<TRIPOS>BOND
     1    22    23    1
     2    23    14    1
     3    14    15   ar
     4    15    16    1
     5    15    17   ar
     6    17    18   ar
     7    18     1    1
     8     1    24    1
     9    24    25   ar
    10    25    26   ar
    11    26    27   ar
    12    27    28   ar
    13    28    30    1
    14    30    31   ar
    15    31    32   ar
    16    32    33   ar
    17    33    34   ar
    18    34    35   ar
    19    28    29   ar
    20     1     2    1
    21     2     3    2
    22     3     4    1
    23     3     5    1
    24     5     6   ar
    25     6     7    1
    26     6     8   ar
    27     8     9   ar
    28     9    10   ar
    29    10    11   ar
    30    18    19   ar
    31    19    20   ar
    32    20    21    1
    33    20    14   ar
    34    11     1    1
    35    29    24   ar
    36    11     5   ar
    37    35    30   ar
    38     4    12    1
    39     4    13    1
@<TRIPOS>MOLECULE
*****
 35 39 0 0 0
SMALL
GASTEIGER

@<TRIPOS>ATOM
      1 C         142.2128  138.9709  159.3703 C.3     1  UNL1        0.2466
      2 N         141.5712  137.7706  158.7398 N.2     1  UNL1       -0.0598
      3 C         142.1223  137.6255  157.3523 C.2     1  UNL1        0.3157
      4 N         141.7556  136.5573  156.3652 N.pl3   1  UNL1       -0.2464
      5 C         143.1046  138.7362  157.1252 C.ar    1  UNL1        0.1095
      6 C         143.9553  139.0978  155.9439 C.ar    1  UNL1        0.1470
      7 F         143.8994  138.2663  154.6968 F       1  UNL1       -0.2039
      8 C         144.8620  140.2909  156.0098 C.ar    1  UNL1        0.0299
      9 C         144.9179  141.1224  157.2570 C.ar    1  UNL1        0.0021
     10 C         144.0672  140.7608  158.4383 C.ar    1  UNL1        0.0008
     11 C         143.1605  139.5677  158.3724 C.ar    1  UNL1        0.0405
     12 H         141.0966  135.8675  156.6084 H       1  UNL1        0.2884
     13 H         142.1739  136.5460  155.4740 H       1  UNL1        0.2884
     14 C         139.6605  137.8860  162.9140 C.ar    1  UNL1        0.1481
     15 C         139.0212  138.4042  161.6600 C.ar    1  UNL1        0.0146
     16 C         137.5312  138.5608  161.5871 C.3     1  UNL1        0.0343
     17 C         139.8720  138.7658  160.4787 C.ar    1  UNL1        0.0183
     18 C         141.3620  138.6092  160.5516 C.ar    1  UNL1        0.1105
     19 N         142.0013  138.0910  161.8057 N.ar    1  UNL1       -0.2462
     20 C         141.1505  137.7294  162.9869 C.ar    1  UNL1        0.0926
     21 C         141.7898  137.2111  164.2411 C.3     1  UNL1        0.0553
     22 C         138.5726  138.5283  165.1843 C.3     1  UNL1        0.2525
     23 O         138.8097  137.5243  164.0954 O.3     1  UNL1       -0.4706
     24 C         142.6766  140.0956  160.2477 C.ar    1  UNL1        0.0312
     25 C         143.9672  139.9748  161.0025 C.ar    1  UNL1        0.0004
     26 C         144.4310  141.0996  161.8800 C.ar    1  UNL1       -0.0002
     27 C         143.6042  142.3452  162.0025 C.ar    1  UNL1        0.0001
     28 C         142.3136  142.4660  161.2477 C.ar    1  UNL1        0.0028
     29 C         141.8498  141.3412  160.3703 C.ar    1  UNL1        0.0005
     30 C         141.4868  143.7115  161.3702 C.ar    1  UNL1        0.0384
     31 C         140.6762  144.1914  160.2029 C.ar    1  UNL1        0.1022
     32 N         139.8493  145.4369  160.3254 N.ar    1  UNL1       -0.2224
     33 C         139.8331  146.2026  161.6152 C.ar    1  UNL1        0.1989
     34 N         140.6439  145.7226  162.7825 N.ar    1  UNL1       -0.2224
     35 C         141.4706  144.4771  162.6600 C.ar    1  UNL1        0.1022
@<TRIPOS>BOND
     1    22    23    1
     2    23    14    1
     3    14    15   ar
     4    15    16    1
     5    15    17   ar
     6    17    18   ar
     7    18     1    1
     8     1    24    1
     9    24    25   ar
    10    25    26   ar
    11    26    27   ar
    12    27    28   ar
    13    28    30    1
    14    30    31   ar
    15    31    32   ar
    16    32    33   ar
    17    33    34   ar
    18    34    35   ar
    19    28    29   ar
    20     1     2    1
    21     2     3    2
    22     3     4    1
    23     3     5    1
    24     5     6   ar
    25     6     7    1
    26     6     8   ar
    27     8     9   ar
    28     9    10   ar
    29    10    11   ar
    30    18    19   ar
    31    19    20   ar
    32    20    21    1
    33    20    14   ar
    34    11     1    1
    35    29    24   ar
    36    11     5   ar
    37    35    30   ar
    38     4    12    1
    39     4    13    1
@<TRIPOS>MOLECULE
*****
 35 39 0 0 0
SMALL
GASTEIGER

@<TRIPOS>ATOM
      1 C         141.8097  141.3233  166.8582 C.3     1  UNL1        0.2466
      2 N         142.7750  142.2067  167.5914 N.2     1  UNL1       -0.0598
      3 C         142.2988  142.3387  169.0076 C.2     1  UNL1        0.3157
      4 N         142.9652  143.1330  170.0916 N.pl3   1  UNL1       -0.2464
      5 C         141.0391  141.5368  169.1497 C.ar    1  UNL1        0.1095
      6 C         140.1282  141.2970  170.3171 C.ar    1  UNL1        0.1470
      7 F         140.4305  141.9245  171.6456 F       1  UNL1       -0.2039
      8 C         138.9151  140.4297  170.1560 C.ar    1  UNL1        0.0299
      9 C         138.6128  139.8021  168.8275 C.ar    1  UNL1        0.0021
     10 C         139.5236  140.0419  167.6602 C.ar    1  UNL1        0.0008
     11 C         140.7368  140.9093  167.8212 C.ar    1  UNL1        0.0405
     12 H         143.7937  143.6290  169.8999 H       1  UNL1        0.2884
     13 H         142.5741  143.1584  170.9947 H       1  UNL1        0.2884
     14 C         144.5423  142.0429  163.3561 C.ar    1  UNL1        0.1481
     15 C         143.8317  143.1952  164.0020 C.ar    1  UNL1        0.0146
     16 C         144.0320  144.5873  163.4807 C.3     1  UNL1        0.0343
     17 C         142.9209  142.9553  165.1694 C.ar    1  UNL1        0.0183
     18 C         142.7206  141.5631  165.6908 C.ar    1  UNL1        0.1105
     19 N         143.4312  140.4109  165.0448 N.ar    1  UNL1       -0.2462
     20 C         144.3420  140.6508  163.8775 C.ar    1  UNL1        0.0926
     21 C         145.0526  139.4985  163.2314 C.3     1  UNL1        0.0553
     22 C         144.8942  142.3249  160.7974 C.3     1  UNL1        0.2525
     23 O         145.4532  142.2827  162.1887 O.3     1  UNL1       -0.4706
     24 C         141.0347  140.4900  165.8809 C.ar    1  UNL1        0.0312
     25 C         140.8192  139.0294  166.1460 C.ar    1  UNL1        0.0004
     26 C         140.0442  138.1962  165.1686 C.ar    1  UNL1       -0.0002
     27 C         139.4848  138.8235  163.9262 C.ar    1  UNL1        0.0001
     28 C         139.7003  140.2841  163.6612 C.ar    1  UNL1        0.0028
     29 C         140.4753  141.1173  164.6384 C.ar    1  UNL1        0.0005
     30 C         139.1409  140.9114  162.4188 C.ar    1  UNL1        0.0384
     31 C         138.7519  140.0504  161.2537 C.ar    1  UNL1        0.1022
     32 N         138.1925  140.6776  160.0113 N.ar    1  UNL1       -0.2224
     33 C         138.0221  142.1659  159.9339 C.ar    1  UNL1        0.1989
     34 N         138.4112  143.0269  161.0991 N.ar    1  UNL1       -0.2224
     35 C         138.9706  142.3997  162.3414 C.ar    1  UNL1        0.1022
@<TRIPOS>BOND
     1    22    23    1
     2    23    14    1
     3    14    15   ar
     4    15    16    1
     5    15    17   ar
     6    17    18   ar
     7    18     1    1
     8     1    24    1
     9    24    25   ar
    10    25    26   ar
    11    26    27   ar
    12    27    28   ar
    13    28    30    1
    14    30    31   ar
    15    31    32   ar
    16    32    33   ar
    17    33    34   ar
    18    34    35   ar
    19    28    29   ar
    20     1     2    1
    21     2     3    2
    22     3     4    1
    23     3     5    1
    24     5     6   ar
    25     6     7    1
    26     6     8   ar
    27     8     9   ar
    28     9    10   ar
    29    10    11   ar
    30    18    19   ar
    31    19    20   ar
    32    20    21    1
    33    20    14   ar
    34    11     1    1
    35    29    24   ar
    36    11     5   ar
    37    35    30   ar
    38     4    12    1
    39     4    13    1
@<TRIPOS>MOLECULE
*****
 35 39 0 0 0
SMALL
GASTEIGER

@<TRIPOS>ATOM
      1 C         141.6801  141.0055  162.2500 C.3     1  UNL1        0.2466
      2 N         142.5442  141.8507  163.1383 N.2     1  UNL1       -0.0598
      3 C         142.8818  141.0459  164.3583 C.2     1  UNL1        0.3157
      4 N         143.7266  141.5034  165.5103 N.pl3   1  UNL1       -0.2464
      5 C         142.2265  139.7034  164.2240 C.ar    1  UNL1        0.1095
      6 C         142.2100  138.5004  165.1198 C.ar    1  UNL1        0.1470
      7 F         142.9527  138.5254  166.4228 F       1  UNL1       -0.2039
      8 C         141.4509  137.2725  164.7127 C.ar    1  UNL1        0.0299
      9 C         140.7081  137.2475  163.4097 C.ar    1  UNL1        0.0021
     10 C         140.7246  138.4505  162.5139 C.ar    1  UNL1        0.0008
     11 C         141.4837  139.6784  162.9210 C.ar    1  UNL1        0.0405
     12 H         144.1154  142.4078  165.5070 H       1  UNL1        0.2884
     13 H         143.8922  140.8992  166.2697 H       1  UNL1        0.2884
     14 C         141.7295  144.6146  159.5626 C.ar    1  UNL1        0.1481
     15 C         140.9116  144.6269  160.8199 C.ar    1  UNL1        0.0146
     16 C         140.1101  145.8422  161.1814 C.3     1  UNL1        0.0343
     17 C         140.8951  143.4239  161.7157 C.ar    1  UNL1        0.0183
     18 C         141.6966  142.2086  161.3542 C.ar    1  UNL1        0.1105
     19 N         142.5145  142.1963  160.0969 N.ar    1  UNL1       -0.2462
     20 C         142.5310  143.3993  159.2011 C.ar    1  UNL1        0.0926
     21 C         143.3489  143.3870  157.9437 C.3     1  UNL1        0.0553
     22 C         140.7088  145.9678  157.5936 C.3     1  UNL1        0.2525
     23 O         141.7460  145.8176  158.6667 O.3     1  UNL1       -0.4706
     24 C         140.8195  140.4118  161.1745 C.ar    1  UNL1        0.0312
     25 C         139.3472  140.6977  161.1488 C.ar    1  UNL1        0.0004
     26 C         138.4866  140.1039  160.0732 C.ar    1  UNL1       -0.0002
     27 C         139.0982  139.2244  159.0233 C.ar    1  UNL1        0.0001
     28 C         140.5705  138.9386  159.0490 C.ar    1  UNL1        0.0028
     29 C         141.4312  139.5323  160.1245 C.ar    1  UNL1        0.0005
     30 C         141.1822  138.0591  157.9991 C.ar    1  UNL1        0.0384
     31 C         140.3513  137.5776  156.8468 C.ar    1  UNL1        0.1022
     32 N         140.9629  136.6981  155.7968 N.ar    1  UNL1       -0.2224
     33 C         142.4055  136.3000  155.8992 C.ar    1  UNL1        0.1989
     34 N         143.2364  136.7815  157.0516 N.ar    1  UNL1       -0.2224
     35 C         142.6248  137.6610  158.1015 C.ar    1  UNL1        0.1022
@<TRIPOS>BOND
     1    22    23    1
     2    23    14    1
     3    14    15   ar
     4    15    16    1
     5    15    17   ar
     6    17    18   ar
     7    18     1    1
     8     1    24    1
     9    24    25   ar
    10    25    26   ar
    11    26    27   ar
    12    27    28   ar
    13    28    30    1
    14    30    31   ar
    15    31    32   ar
    16    32    33   ar
    17    33    34   ar
    18    34    35   ar
    19    28    29   ar
    20     1     2    1
    21     2     3    2
    22     3     4    1
    23     3     5    1
    24     5     6   ar
    25     6     7    1
    26     6     8   ar
    27     8     9   ar
    28     9    10   ar
    29    10    11   ar
    30    18    19   ar
    31    19    20   ar
    32    20    21    1
    33    20    14   ar
    34    11     1    1
    35    29    24   ar
    36    11     5   ar
    37    35    30   ar
    38     4    12    1
    39     4    13    1
@<TRIPOS>MOLECULE
*****
 35 39 0 0 0
SMALL
GASTEIGER

@<TRIPOS>ATOM
      1 C         139.3784  142.2048  160.1596 C.3     1  UNL1        0.2466
      2 N         138.3900  141.2154  160.7018 N.2     1  UNL1       -0.0598
      3 C         137.9111  141.7195  162.0309 C.2     1  UNL1        0.3157
      4 N         136.9147  141.0416  162.9241 N.pl3   1  UNL1       -0.2464
      5 C         138.6035  143.0205  162.3101 C.ar    1  UNL1        0.1095
      6 C         138.5255  143.9708  163.4680 C.ar    1  UNL1        0.1470
      7 F         137.6186  143.6708  164.6246 F       1  UNL1       -0.2039
      8 C         139.3542  145.2210  163.4694 C.ar    1  UNL1        0.0299
      9 C         140.2611  145.5209  162.3128 C.ar    1  UNL1        0.0021
     10 C         140.3391  144.5707  161.1549 C.ar    1  UNL1        0.0008
     11 C         139.5104  143.3204  161.1535 C.ar    1  UNL1        0.0405
     12 H         136.5127  140.1851  162.6522 H       1  UNL1        0.2884
     13 H         136.6628  141.4533  163.7822 H       1  UNL1        0.2884
     14 C         139.6125  139.3538  156.6858 C.ar    1  UNL1        0.1481
     15 C         140.6137  139.2633  157.7991 C.ar    1  UNL1        0.0146
     16 C         141.6929  138.2225  157.7546 C.3     1  UNL1        0.0343
     17 C         140.5356  140.2136  158.9570 C.ar    1  UNL1        0.0183
     18 C         139.4564  141.2544  159.0016 C.ar    1  UNL1        0.1105
     19 N         138.4552  141.3449  157.8883 N.ar    1  UNL1       -0.2462
     20 C         138.5333  140.3946  156.7304 C.ar    1  UNL1        0.0926
     21 C         137.5321  140.4850  155.6171 C.3     1  UNL1        0.0553
     22 C         138.9999  137.0739  155.6009 C.3     1  UNL1        0.2525
     23 O         139.6906  138.4034  155.5279 O.3     1  UNL1       -0.4706
     24 C         140.3831  142.9956  159.3752 C.ar    1  UNL1        0.0312
     25 C         141.8499  142.7624  159.5849 C.ar    1  UNL1        0.0004
     26 C         142.8547  143.5533  158.8004 C.ar    1  UNL1       -0.0002
     27 C         142.3925  144.5772  157.8065 C.ar    1  UNL1        0.0001
     28 C         140.9256  144.8103  157.5968 C.ar    1  UNL1        0.0028
     29 C         139.9209  144.0195  158.3812 C.ar    1  UNL1        0.0005
     30 C         140.4635  145.8342  156.6028 C.ar    1  UNL1        0.0384
     31 C         141.0370  145.8463  155.2169 C.ar    1  UNL1        0.1022
     32 N         140.5749  146.8702  154.2228 N.ar    1  UNL1       -0.2224
     33 C         139.5392  147.8820  154.6148 C.ar    1  UNL1        0.1989
     34 N         138.9656  147.8698  156.0008 N.ar    1  UNL1       -0.2224
     35 C         139.4277  146.8460  156.9948 C.ar    1  UNL1        0.1022
@<TRIPOS>BOND
     1    22    23    1
     2    23    14    1
     3    14    15   ar
     4    15    16    1
     5    15    17   ar
     6    17    18   ar
     7    18     1    1
     8     1    24    1
     9    24    25   ar
    10    25    26   ar
    11    26    27   ar
    12    27    28   ar
    13    28    30    1
    14    30    31   ar
    15    31    32   ar
    16    32    33   ar
    17    33    34   ar
    18    34    35   ar
    19    28    29   ar
    20     1     2    1
    21     2     3    2
    22     3     4    1
    23     3     5    1
    24     5     6   ar
    25     6     7    1
    26     6     8   ar
    27     8     9   ar
    28     9    10   ar
    29    10    11   ar
    30    18    19   ar
    31    19    20   ar
    32    20    21    1
    33    20    14   ar
    34    11     1    1
    35    29    24   ar
    36    11     5   ar
    37    35    30   ar
    38     4    12    1
    39     4    13    1
