@<TRIPOS>MOLECULE
*****
 28 30 0 0 0
SMALL
GASTEIGER

@<TRIPOS>ATOM
      1 C         142.5587  140.1014  165.4360 C.ar    1  UNL1        0.0727
      2 C         142.6419  139.1380  166.5827 C.ar    1  UNL1        0.0252
      3 C         142.5817  139.9275  167.8567 C.ar    1  UNL1        0.0830
      4 C         142.6209  139.5124  169.2976 C.ar    1  UNL1        0.0208
      5 C         142.5397  140.5486  170.3791 C.ar    1  UNL1        0.0240
      6 C         142.4193  141.9999  170.0197 C.ar    1  UNL1        0.1206
      7 N         142.3801  142.4151  168.5789 N.ar    1  UNL1       -0.1636
      8 N         142.4613  141.3789  167.4974 N.ar    1  UNL1       -0.2295
      9 C         142.4471  141.4863  166.0013 C.ar    1  UNL1        0.0871
     10 C         142.3401  142.7558  165.2095 C.ar    1  UNL1        0.0178
     11 C         143.5585  143.5993  164.9763 C.ar    1  UNL1        0.0015
     12 C         143.4515  144.8688  164.1845 C.ar    1  UNL1       -0.0000
     13 C         142.1261  145.2949  163.6260 C.ar    1  UNL1        0.0039
     14 C         140.9079  144.4515  163.8592 C.ar    1  UNL1        0.0715
     15 C         141.0149  143.1820  164.6510 C.ar    1  UNL1        0.0053
     16 C         139.5826  144.8776  163.3007 C.3     1  UNL1        0.4186
     17 F         138.2572  145.3037  162.7422 F       1  UNL1       -0.1659
     18 F         140.0438  144.5058  161.9226 F       1  UNL1       -0.1659
     19 F         139.1213  145.2494  164.6787 F       1  UNL1       -0.1659
     20 N         143.8871  139.6978  163.2400 N.am    1  UNL1       -0.2735
     21 C         142.5830  139.7428  163.9797 C.2     1  UNL1        0.2506
     22 O         141.3031  139.4293  163.2631 O.2     1  UNL1       -0.2699
     23 C         143.8801  137.8990  161.3652 C.3     1  UNL1        0.0233
     24 C         143.9113  139.3392  161.7837 C.3     1  UNL1        0.0939
     25 C         145.1670  140.0113  163.9566 C.3     1  UNL1        0.1254
     26 C         145.7676  141.3820  163.8541 C.3     1  UNL1        0.1586
     27 O         145.9759  142.0109  162.5083 O.3     1  UNL1       -0.3802
     28 H         146.6402  141.5053  162.0144 H       1  UNL1        0.2105
@<TRIPOS>BOND
     1    23    24    1
     2    24    20    1
     3    20    25    1
     4    25    26    1
     5    26    27    1
     6    20    21   am
     7    21    22    2
     8    21     1    1
     9     1     2   ar
    10     2     3   ar
    11     3     4   ar
    12     4     5   ar
    13     5     6   ar
    14     6     7   ar
    15     7     8   ar
    16     8     9   ar
    17     9    10    1
    18    10    11   ar
    19    11    12   ar
    20    12    13   ar
    21    13    14   ar
    22    14    16    1
    23    16    17    1
    24    16    18    1
    25    16    19    1
    26    14    15   ar
    27     9     1   ar
    28    15    10   ar
    29     8     3   ar
    30    27    28    1
@<TRIPOS>MOLECULE
*****
 28 30 0 0 0
SMALL
GASTEIGER

@<TRIPOS>ATOM
      1 C         142.5949  141.2853  166.8532 C.ar    1  UNL1        0.0727
      2 C         143.4360  142.5147  166.6769 C.ar    1  UNL1        0.0252
      3 C         143.3613  142.9248  165.2360 C.ar    1  UNL1        0.0830
      4 C         143.9865  144.0608  164.4821 C.ar    1  UNL1        0.0208
      5 C         143.7245  144.2209  163.0139 C.ar    1  UNL1        0.0240
      6 C         142.8373  143.2449  162.2996 C.ar    1  UNL1        0.1206
      7 N         142.2120  142.1088  163.0535 N.ar    1  UNL1       -0.1636
      8 N         142.4740  141.9488  164.5217 N.ar    1  UNL1       -0.2295
      9 C         142.0004  140.9356  165.5212 C.ar    1  UNL1        0.0871
     10 C         141.0917  139.7761  165.2383 C.ar    1  UNL1        0.0178
     11 C         141.3681  138.8737  164.0724 C.ar    1  UNL1        0.0015
     12 C         140.4594  137.7142  163.7895 C.ar    1  UNL1       -0.0000
     13 C         139.2745  137.4571  164.6725 C.ar    1  UNL1        0.0039
     14 C         138.9981  138.3596  165.8384 C.ar    1  UNL1        0.0715
     15 C         139.9068  139.5190  166.1213 C.ar    1  UNL1        0.0053
     16 C         137.8131  138.1025  166.7214 C.3     1  UNL1        0.4186
     17 F         136.6281  137.8455  167.6044 F       1  UNL1       -0.1659
     18 F         137.7871  136.6722  166.2702 F       1  UNL1       -0.1659
     19 F         137.8391  139.5328  167.1726 F       1  UNL1       -0.1659
     20 N         141.4837  141.1005  169.1944 N.am    1  UNL1       -0.2735
     21 C         142.3852  140.5370  168.1362 C.2     1  UNL1        0.2506
     22 O         143.0769  139.2252  168.3610 O.2     1  UNL1       -0.2699
     23 C         139.9115  139.8318  170.8279 C.3     1  UNL1        0.0233
     24 C         141.2740  140.3522  170.4774 C.3     1  UNL1        0.0939
     25 C         140.7919  142.4124  168.9696 C.3     1  UNL1        0.1254
     26 C         141.1082  143.5871  169.8470 C.3     1  UNL1        0.1586
     27 O         140.0138  144.5190  170.2761 O.3     1  UNL1       -0.3802
     28 H         139.6635  144.9850  169.5009 H       1  UNL1        0.2105
@<TRIPOS>BOND
     1    23    24    1
     2    24    20    1
     3    20    25    1
     4    25    26    1
     5    26    27    1
     6    20    21   am
     7    21    22    2
     8    21     1    1
     9     1     2   ar
    10     2     3   ar
    11     3     4   ar
    12     4     5   ar
    13     5     6   ar
    14     6     7   ar
    15     7     8   ar
    16     8     9   ar
    17     9    10    1
    18    10    11   ar
    19    11    12   ar
    20    12    13   ar
    21    13    14   ar
    22    14    16    1
    23    16    17    1
    24    16    18    1
    25    16    19    1
    26    14    15   ar
    27     9     1   ar
    28    15    10   ar
    29     8     3   ar
    30    27    28    1
@<TRIPOS>MOLECULE
*****
 28 30 0 0 0
SMALL
GASTEIGER

@<TRIPOS>ATOM
      1 C         140.1550  139.4763  165.8395 C.ar    1  UNL1        0.0727
      2 C         139.1716  139.5473  166.9700 C.ar    1  UNL1        0.0252
      3 C         139.8503  140.2066  168.1340 C.ar    1  UNL1        0.0830
      4 C         139.3721  140.5440  169.5151 C.ar    1  UNL1        0.0208
      5 C         140.2967  141.2179  170.4850 C.ar    1  UNL1        0.0240
      6 C         141.6995  141.5544  170.0739 C.ar    1  UNL1        0.1206
      7 N         142.1776  141.2171  168.6928 N.ar    1  UNL1       -0.1636
      8 N         141.2530  140.5431  167.7228 N.ar    1  UNL1       -0.2295
      9 C         141.4413  140.0918  166.3048 C.ar    1  UNL1        0.0871
     10 C         142.6957  140.2314  165.4943 C.ar    1  UNL1        0.0178
     11 C         143.6719  139.0947  165.4212 C.ar    1  UNL1        0.0015
     12 C         144.9263  139.2344  164.6107 C.ar    1  UNL1       -0.0000
     13 C         145.2047  140.5106  163.8733 C.ar    1  UNL1        0.0039
     14 C         144.2286  141.6472  163.9465 C.ar    1  UNL1        0.0715
     15 C         142.9742  141.5076  164.7569 C.ar    1  UNL1        0.0053
     16 C         144.5070  142.9235  163.2091 C.3     1  UNL1        0.4186
     17 F         144.7853  144.1997  162.4718 F       1  UNL1       -0.1659
     18 F         143.4875  143.6321  164.0509 F       1  UNL1       -0.1659
     19 F         145.5264  142.2148  162.3674 F       1  UNL1       -0.1659
     20 N         139.4106  139.7708  163.3678 N.am    1  UNL1       -0.2735
     21 C         139.8972  138.8924  164.4821 C.2     1  UNL1        0.2506
     22 O         140.1259  137.4301  164.2389 O.2     1  UNL1       -0.2699
     23 C         137.9107  138.3832  161.7632 C.3     1  UNL1        0.0233
     24 C         139.1529  139.1869  162.0104 C.3     1  UNL1        0.0939
     25 C         139.1819  141.2333  163.6110 C.3     1  UNL1        0.1254
     26 C         137.8140  141.7276  163.9778 C.3     1  UNL1        0.1586
     27 O         136.6292  141.3465  163.1404 O.3     1  UNL1       -0.3802
     28 H         136.7146  141.7438  162.2597 H       1  UNL1        0.2105
@<TRIPOS>BOND
     1    23    24    1
     2    24    20    1
     3    20    25    1
     4    25    26    1
     5    26    27    1
     6    20    21   am
     7    21    22    2
     8    21     1    1
     9     1     2   ar
    10     2     3   ar
    11     3     4   ar
    12     4     5   ar
    13     5     6   ar
    14     6     7   ar
    15     7     8   ar
    16     8     9   ar
    17     9    10    1
    18    10    11   ar
    19    11    12   ar
    20    12    13   ar
    21    13    14   ar
    22    14    16    1
    23    16    17    1
    24    16    18    1
    25    16    19    1
    26    14    15   ar
    27     9     1   ar
    28    15    10   ar
    29     8     3   ar
    30    27    28    1
@<TRIPOS>MOLECULE
*****
 28 30 0 0 0
SMALL
GASTEIGER

@<TRIPOS>ATOM
      1 C         143.2487  139.9574  165.5255 C.ar    1  UNL1        0.0727
      2 C         143.1524  138.9406  166.6241 C.ar    1  UNL1        0.0252
      3 C         142.6723  139.6393  167.8616 C.ar    1  UNL1        0.0830
      4 C         142.3918  139.1436  169.2492 C.ar    1  UNL1        0.0208
      5 C         141.9109  140.0965  170.3031 C.ar    1  UNL1        0.0240
      6 C         141.7105  141.5451  169.9693 C.ar    1  UNL1        0.1206
      7 N         141.9911  142.0408  168.5817 N.ar    1  UNL1       -0.1636
      8 N         142.4720  141.0879  167.5279 N.ar    1  UNL1       -0.2295
      9 C         142.8282  141.2845  166.0841 C.ar    1  UNL1        0.0871
     10 C         142.7736  142.5807  165.3311 C.ar    1  UNL1        0.0178
     11 C         144.0286  143.3710  165.1062 C.ar    1  UNL1        0.0015
     12 C         143.9739  144.6671  164.3532 C.ar    1  UNL1       -0.0000
     13 C         142.6643  145.1730  163.8251 C.ar    1  UNL1        0.0039
     14 C         141.4094  144.3828  164.0499 C.ar    1  UNL1        0.0715
     15 C         141.4640  143.0866  164.8029 C.ar    1  UNL1        0.0053
     16 C         140.0997  144.8887  163.5218 C.3     1  UNL1        0.4186
     17 F         138.7901  145.3946  162.9937 F       1  UNL1       -0.1659
     18 F         140.6984  145.0078  162.1516 F       1  UNL1       -0.1659
     19 F         139.5011  144.7695  164.8920 F       1  UNL1       -0.1659
     20 N         142.6728  139.3603  163.0634 N.am    1  UNL1       -0.2735
     21 C         143.6884  139.6934  164.1159 C.2     1  UNL1        0.2506
     22 O         145.1435  139.7626  163.7587 O.2     1  UNL1       -0.2699
     23 C         143.9056  137.8640  161.3339 C.3     1  UNL1        0.0233
     24 C         143.1125  139.0964  161.6538 C.3     1  UNL1        0.0939
     25 C         141.2176  139.2912  163.4206 C.3     1  UNL1        0.1254
     26 C         140.5424  137.9592  163.5618 C.3     1  UNL1        0.1586
     27 O         141.2634  136.7065  163.1602 O.3     1  UNL1       -0.3802
     28 H         141.4122  136.7123  162.2017 H       1  UNL1        0.2105
@<TRIPOS>BOND
     1    23    24    1
     2    24    20    1
     3    20    25    1
     4    25    26    1
     5    26    27    1
     6    20    21   am
     7    21    22    2
     8    21     1    1
     9     1     2   ar
    10     2     3   ar
    11     3     4   ar
    12     4     5   ar
    13     5     6   ar
    14     6     7   ar
    15     7     8   ar
    16     8     9   ar
    17     9    10    1
    18    10    11   ar
    19    11    12   ar
    20    12    13   ar
    21    13    14   ar
    22    14    16    1
    23    16    17    1
    24    16    18    1
    25    16    19    1
    26    14    15   ar
    27     9     1   ar
    28    15    10   ar
    29     8     3   ar
    30    27    28    1
@<TRIPOS>MOLECULE
*****
 28 30 0 0 0
SMALL
GASTEIGER

@<TRIPOS>ATOM
      1 C         139.2792  140.6075  165.7263 C.ar    1  UNL1        0.0727
      2 C         139.1545  139.7418  166.9449 C.ar    1  UNL1        0.0252
      3 C         139.7920  140.4647  168.0943 C.ar    1  UNL1        0.0830
      4 C         139.9672  140.0974  169.5380 C.ar    1  UNL1        0.0208
      5 C         140.6610  141.0426  170.4735 C.ar    1  UNL1        0.0240
      6 C         141.1796  142.3551  169.9652 C.ar    1  UNL1        0.1206
      7 N         141.0044  142.7224  168.5215 N.ar    1  UNL1       -0.1636
      8 N         140.3106  141.7772  167.5861 N.ar    1  UNL1       -0.2295
      9 C         139.9937  141.8654  166.1226 C.ar    1  UNL1        0.0871
     10 C         140.3319  143.0106  165.2147 C.ar    1  UNL1        0.0178
     11 C         139.2936  144.0443  164.8925 C.ar    1  UNL1        0.0015
     12 C         139.6319  145.1894  163.9847 C.ar    1  UNL1       -0.0000
     13 C         141.0083  145.3011  163.3991 C.ar    1  UNL1        0.0039
     14 C         142.0465  144.2676  163.7213 C.ar    1  UNL1        0.0715
     15 C         141.7083  143.1224  164.6292 C.ar    1  UNL1        0.0053
     16 C         143.4230  144.3792  163.1357 C.3     1  UNL1        0.4186
     17 F         144.7994  144.4909  162.5502 F       1  UNL1       -0.1659
     18 F         142.9075  143.8622  161.8254 F       1  UNL1       -0.1659
     19 F         143.9385  144.8962  164.4461 F       1  UNL1       -0.1659
     20 N         139.5860  139.3857  163.4540 N.am    1  UNL1       -0.2735
     21 C         138.7775  140.2738  164.3526 C.2     1  UNL1        0.2506
     22 O         137.4672  140.8283  163.8775 O.2     1  UNL1       -0.2699
     23 C         138.0006  138.0298  161.9055 C.3     1  UNL1        0.0233
     24 C         139.0843  139.0521  162.0804 C.3     1  UNL1        0.0939
     25 C         140.8963  138.8312  163.9291 C.3     1  UNL1        0.1254
     26 C         141.1982  137.3716  163.7609 C.3     1  UNL1        0.1586
     27 O         141.5738  136.8340  162.4118 O.3     1  UNL1       -0.3802
     28 H         140.8173  136.9137  161.8099 H       1  UNL1        0.2105
@<TRIPOS>BOND
     1    23    24    1
     2    24    20    1
     3    20    25    1
     4    25    26    1
     5    26    27    1
     6    20    21   am
     7    21    22    2
     8    21     1    1
     9     1     2   ar
    10     2     3   ar
    11     3     4   ar
    12     4     5   ar
    13     5     6   ar
    14     6     7   ar
    15     7     8   ar
    16     8     9   ar
    17     9    10    1
    18    10    11   ar
    19    11    12   ar
    20    12    13   ar
    21    13    14   ar
    22    14    16    1
    23    16    17    1
    24    16    18    1
    25    16    19    1
    26    14    15   ar
    27     9     1   ar
    28    15    10   ar
    29     8     3   ar
    30    27    28    1
@<TRIPOS>MOLECULE
*****
 28 30 0 0 0
SMALL
GASTEIGER

@<TRIPOS>ATOM
      1 C         142.3138  142.5632  165.5615 C.ar    1  UNL1        0.0727
      2 C         143.2538  142.3534  166.7114 C.ar    1  UNL1        0.0252
      3 C         142.5401  141.5416  167.7514 C.ar    1  UNL1        0.0830
      4 C         142.9694  141.0305  169.0946 C.ar    1  UNL1        0.0208
      5 C         142.0176  140.2274  169.9307 C.ar    1  UNL1        0.0240
      6 C         140.6365  139.9354  169.4235 C.ar    1  UNL1        0.1206
      7 N         140.2072  140.4465  168.0802 N.ar    1  UNL1       -0.1636
      8 N         141.1590  141.2496  167.2442 N.ar    1  UNL1       -0.2295
      9 C         141.0192  141.8810  165.8907 C.ar    1  UNL1        0.0871
     10 C         139.7988  141.8378  165.0195 C.ar    1  UNL1        0.0178
     11 C         138.9015  143.0362  164.9257 C.ar    1  UNL1        0.0015
     12 C         137.6812  142.9930  164.0545 C.ar    1  UNL1       -0.0000
     13 C         137.3582  141.7515  163.2772 C.ar    1  UNL1        0.0039
     14 C         138.2555  140.5532  163.3710 C.ar    1  UNL1        0.0715
     15 C         139.4758  140.5964  164.2422 C.ar    1  UNL1        0.0053
     16 C         137.9325  139.3116  162.5937 C.3     1  UNL1        0.4186
     17 F         137.6095  138.0701  161.8164 F       1  UNL1       -0.1659
     18 F         137.3765  140.1520  161.4825 F       1  UNL1       -0.1659
     19 F         138.4884  138.4713  163.7049 F       1  UNL1       -0.1659
     20 N         143.3994  142.6693  163.2035 N.am    1  UNL1       -0.2735
     21 C         142.6155  143.3220  164.3032 C.2     1  UNL1        0.2506
     22 O         142.1333  144.7335  164.1446 O.2     1  UNL1       -0.2699
     23 C         142.6903  143.4764  160.8379 C.3     1  UNL1        0.0233
     24 C         143.7011  143.4281  161.9452 C.3     1  UNL1        0.0939
     25 C         143.8817  141.2578  163.3620 C.3     1  UNL1        0.1254
     26 C         145.2929  140.9915  163.7951 C.3     1  UNL1        0.1586
     27 O         146.4204  141.7887  163.2090 O.3     1  UNL1       -0.3802
     28 H         146.5003  141.5886  162.2632 H       1  UNL1        0.2105
@<TRIPOS>BOND
     1    23    24    1
     2    24    20    1
     3    20    25    1
     4    25    26    1
     5    26    27    1
     6    20    21   am
     7    21    22    2
     8    21     1    1
     9     1     2   ar
    10     2     3   ar
    11     3     4   ar
    12     4     5   ar
    13     5     6   ar
    14     6     7   ar
    15     7     8   ar
    16     8     9   ar
    17     9    10    1
    18    10    11   ar
    19    11    12   ar
    20    12    13   ar
    21    13    14   ar
    22    14    16    1
    23    16    17    1
    24    16    18    1
    25    16    19    1
    26    14    15   ar
    27     9     1   ar
    28    15    10   ar
    29     8     3   ar
    30    27    28    1
@<TRIPOS>MOLECULE
*****
 28 30 0 0 0
SMALL
GASTEIGER

@<TRIPOS>ATOM
      1 C         140.9803  141.9359  164.0503 C.ar    1  UNL1        0.0727
      2 C         140.3070  141.0986  163.0035 C.ar    1  UNL1        0.0252
      3 C         139.7527  139.8763  163.6734 C.ar    1  UNL1        0.0830
      4 C         138.9896  138.6994  163.1419 C.ar    1  UNL1        0.0208
      5 C         138.5570  137.6044  164.0712 C.ar    1  UNL1        0.0240
      6 C         138.8876  137.6862  165.5321 C.ar    1  UNL1        0.1206
      7 N         139.6507  138.8631  166.0635 N.ar    1  UNL1       -0.1636
      8 N         140.0833  139.9582  165.1342 N.ar    1  UNL1       -0.2295
      9 C         140.8419  141.2310  165.3671 C.ar    1  UNL1        0.0871
     10 C         141.3697  141.7142  166.6855 C.ar    1  UNL1        0.0178
     11 C         142.8492  141.7671  166.9272 C.ar    1  UNL1        0.0015
     12 C         143.3769  142.2503  168.2456 C.ar    1  UNL1       -0.0000
     13 C         142.4252  142.6806  169.3222 C.ar    1  UNL1        0.0039
     14 C         140.9458  142.6277  169.0804 C.ar    1  UNL1        0.0715
     15 C         140.4180  142.1445  167.7620 C.ar    1  UNL1        0.0053
     16 C         139.9941  143.0580  170.1570 C.3     1  UNL1        0.4186
     17 F         139.0423  143.4883  171.2336 F       1  UNL1       -0.1659
     18 F         140.6347  144.4141  170.1813 F       1  UNL1       -0.1659
     19 F         139.3535  141.7019  170.1327 F       1  UNL1       -0.1659
     20 N         143.0676  143.2745  163.2750 N.am    1  UNL1       -0.2735
     21 C         141.6706  143.2476  163.8205 C.2     1  UNL1        0.2506
     22 O         140.9639  144.5324  164.1363 O.2     1  UNL1       -0.2699
     23 C         143.9396  145.5474  164.1825 C.3     1  UNL1        0.0233
     24 C         143.7579  144.5863  163.0453 C.3     1  UNL1        0.0939
     25 C         143.7743  141.9897  162.9592 C.3     1  UNL1        0.1254
     26 C         144.9736  141.5769  163.7600 C.3     1  UNL1        0.1586
     27 O         146.3534  141.8270  163.2274 O.3     1  UNL1       -0.3802
     28 H         146.4958  141.2889  162.4329 H       1  UNL1        0.2105
@<TRIPOS>BOND
     1    23    24    1
     2    24    20    1
     3    20    25    1
     4    25    26    1
     5    26    27    1
     6    20    21   am
     7    21    22    2
     8    21     1    1
     9     1     2   ar
    10     2     3   ar
    11     3     4   ar
    12     4     5   ar
    13     5     6   ar
    14     6     7   ar
    15     7     8   ar
    16     8     9   ar
    17     9    10    1
    18    10    11   ar
    19    11    12   ar
    20    12    13   ar
    21    13    14   ar
    22    14    16    1
    23    16    17    1
    24    16    18    1
    25    16    19    1
    26    14    15   ar
    27     9     1   ar
    28    15    10   ar
    29     8     3   ar
    30    27    28    1
@<TRIPOS>MOLECULE
*****
 28 30 0 0 0
SMALL
GASTEIGER

@<TRIPOS>ATOM
      1 C         139.5511  140.6224  166.0927 C.ar    1  UNL1        0.0727
      2 C         139.1705  139.8814  167.3401 C.ar    1  UNL1        0.0252
      3 C         139.9265  140.4846  168.4866 C.ar    1  UNL1        0.0830
      4 C         139.9524  140.1636  169.9516 C.ar    1  UNL1        0.0208
      5 C         140.8262  140.9564  170.8778 C.ar    1  UNL1        0.0240
      6 C         141.6741  142.0703  170.3390 C.ar    1  UNL1        0.1206
      7 N         141.6482  142.3914  168.8740 N.ar    1  UNL1       -0.1636
      8 N         140.7744  141.5985  167.9478 N.ar    1  UNL1       -0.2295
      9 C         140.5424  141.6836  166.4683 C.ar    1  UNL1        0.0871
     10 C         141.1883  142.6589  165.5293 C.ar    1  UNL1        0.0178
     11 C         142.6837  142.7528  165.4574 C.ar    1  UNL1        0.0015
     12 C         143.3296  143.7281  164.5183 C.ar    1  UNL1       -0.0000
     13 C         142.4802  144.6093  163.6512 C.ar    1  UNL1        0.0039
     14 C         140.9849  144.5153  163.7231 C.ar    1  UNL1        0.0715
     15 C         140.3390  143.5401  164.6621 C.ar    1  UNL1        0.0053
     16 C         140.1355  145.3965  162.8560 C.3     1  UNL1        0.4186
     17 F         139.2861  146.2777  161.9888 F       1  UNL1       -0.1659
     18 F         139.0234  145.3114  163.8589 F       1  UNL1       -0.1659
     19 F         141.2476  145.4816  161.8530 F       1  UNL1       -0.1659
     20 N         139.8385  139.5211  163.7572 N.am    1  UNL1       -0.2735
     21 C         139.0317  140.3500  164.7121 C.2     1  UNL1        0.2506
     22 O         137.7054  140.9065  164.2865 O.2     1  UNL1       -0.2699
     23 C         138.2781  138.1902  162.1623 C.3     1  UNL1        0.0233
     24 C         139.3191  139.2487  162.3766 C.3     1  UNL1        0.0939
     25 C         141.1649  138.9646  164.1828 C.3     1  UNL1        0.1254
     26 C         141.8769  137.9732  163.3110 C.3     1  UNL1        0.1586
     27 O         141.2969  136.6057  163.1019 O.3     1  UNL1       -0.3802
     28 H         141.3052  136.1192  163.9411 H       1  UNL1        0.2105
@<TRIPOS>BOND
     1    23    24    1
     2    24    20    1
     3    20    25    1
     4    25    26    1
     5    26    27    1
     6    20    21   am
     7    21    22    2
     8    21     1    1
     9     1     2   ar
    10     2     3   ar
    11     3     4   ar
    12     4     5   ar
    13     5     6   ar
    14     6     7   ar
    15     7     8   ar
    16     8     9   ar
    17     9    10    1
    18    10    11   ar
    19    11    12   ar
    20    12    13   ar
    21    13    14   ar
    22    14    16    1
    23    16    17    1
    24    16    18    1
    25    16    19    1
    26    14    15   ar
    27     9     1   ar
    28    15    10   ar
    29     8     3   ar
    30    27    28    1
@<TRIPOS>MOLECULE
*****
 28 30 0 0 0
SMALL
GASTEIGER

@<TRIPOS>ATOM
      1 C         140.7874  140.1399  165.9629 C.ar    1  UNL1        0.0727
      2 C         139.9252  139.5620  167.0457 C.ar    1  UNL1        0.0252
      3 C         139.8877  140.5418  168.1809 C.ar    1  UNL1        0.0830
      4 C         139.1979  140.5092  169.5124 C.ar    1  UNL1        0.0208
      5 C         139.3472  141.6600  170.4628 C.ar    1  UNL1        0.0240
      6 C         140.1863  142.8435  170.0816 C.ar    1  UNL1        0.1206
      7 N         140.8761  142.8761  168.7500 N.ar    1  UNL1       -0.1636
      8 N         140.7268  141.7252  167.7997 N.ar    1  UNL1       -0.2295
      9 C         141.2829  141.4769  166.4289 C.ar    1  UNL1        0.0871
     10 C         142.1774  142.4029  165.6592 C.ar    1  UNL1        0.0178
     11 C         143.5922  142.6228  166.1065 C.ar    1  UNL1        0.0015
     12 C         144.4867  143.5489  165.3368 C.ar    1  UNL1       -0.0000
     13 C         143.9664  144.2550  164.1200 C.ar    1  UNL1        0.0039
     14 C         142.5516  144.0350  163.6728 C.ar    1  UNL1        0.0715
     15 C         141.6572  143.1090  164.4424 C.ar    1  UNL1        0.0053
     16 C         142.0313  144.7411  162.4559 C.3     1  UNL1        0.4186
     17 F         141.5111  145.4472  161.2391 F       1  UNL1       -0.1659
     18 F         141.6075  145.8995  163.3093 F       1  UNL1       -0.1659
     19 F         142.4552  143.5826  161.6025 F       1  UNL1       -0.1659
     20 N         140.2996  139.8504  163.4275 N.am    1  UNL1       -0.2735
     21 C         141.0995  139.4943  164.6454 C.2     1  UNL1        0.2506
     22 O         142.2115  138.4926  164.5458 O.2     1  UNL1       -0.2699
     23 C         141.6537  139.8010  161.2107 C.3     1  UNL1        0.0233
     24 C         140.6116  139.2047  162.1100 C.3     1  UNL1        0.0939
     25 C         139.1875  140.8521  163.5271 C.3     1  UNL1        0.1254
     26 C         137.7638  140.3868  163.6069 C.3     1  UNL1        0.1586
     27 O         136.6585  141.2629  163.0961 O.3     1  UNL1       -0.3802
     28 H         136.5993  142.0612  163.6440 H       1  UNL1        0.2105
@<TRIPOS>BOND
     1    23    24    1
     2    24    20    1
     3    20    25    1
     4    25    26    1
     5    26    27    1
     6    20    21   am
     7    21    22    2
     8    21     1    1
     9     1     2   ar
    10     2     3   ar
    11     3     4   ar
    12     4     5   ar
    13     5     6   ar
    14     6     7   ar
    15     7     8   ar
    16     8     9   ar
    17     9    10    1
    18    10    11   ar
    19    11    12   ar
    20    12    13   ar
    21    13    14   ar
    22    14    16    1
    23    16    17    1
    24    16    18    1
    25    16    19    1
    26    14    15   ar
    27     9     1   ar
    28    15    10   ar
    29     8     3   ar
    30    27    28    1
