@<TRIPOS>MOLECULE
*****
 34 38 0 0 0
SMALL
GASTEIGER

@<TRIPOS>ATOM
      1 C         139.6644  140.7999  167.2638 C.ar    1  UNL1        0.0004
      2 C         138.8773  139.5751  166.9029 C.ar    1  UNL1        0.0031
      3 C         138.2774  139.4455  165.5342 C.ar    1  UNL1        0.0370
      4 C         138.4646  140.5407  164.5265 C.ar    1  UNL1        0.1415
      5 C         139.2517  141.7655  164.8874 C.ar    1  UNL1        0.0699
      6 C         139.8516  141.8951  166.2560 C.ar    1  UNL1        0.0061
      7 C         139.5562  142.9650  164.0398 C.ar    1  UNL1        0.1704
      8 N         140.3614  144.1349  164.5222 N.ar    1  UNL1       -0.1273
      9 N         140.4517  145.1289  163.4024 N.ar    1  UNL1       -0.1127
     10 C         139.7022  144.5733  162.2279 C.ar    1  UNL1        0.2224
     11 N         139.1487  143.2359  162.6218 N.ar    1  UNL1       -0.2796
     12 C         138.3361  142.3742  161.7013 C.3     1  UNL1        0.1574
     13 C         137.7303  141.0289  161.9714 C.3     1  UNL1        0.2299
     14 O         137.7875  140.2129  163.2287 O.3     1  UNL1       -0.4733
     15 C         141.9776  142.0350  170.2427 C.ar    1  UNL1        0.0590
     16 C         141.3777  141.9053  168.8740 C.ar    1  UNL1        0.0147
     17 C         140.2643  140.9296  168.6325 C.ar    1  UNL1        0.0027
     18 C         139.7509  140.0835  169.7597 C.ar    1  UNL1        0.0207
     19 C         140.3507  140.2132  171.1283 C.ar    1  UNL1        0.0984
     20 N         141.4642  141.1889  171.3699 N.ar    1  UNL1       -0.2482
     21 C         144.4526  142.7519  169.9107 C.3     1  UNL1        0.0067
     22 C         143.0910  143.0107  170.4842 C.3     1  UNL1        0.0458
     23 N         139.5354  145.2383  160.8938 N.pl3   1  UNL1       -0.2826
     24 H         138.7873  145.8606  160.7440 H       1  UNL1        0.1551
     25 C         140.5084  144.9553  159.7878 C.ar    1  UNL1        0.0504
     26 C         141.6413  143.9982  160.0122 C.ar    1  UNL1        0.0147
     27 C         142.6143  143.7152  158.9061 C.ar    1  UNL1        0.0012
     28 C         142.4543  144.3894  157.5758 C.ar    1  UNL1        0.0039
     29 C         141.3214  145.3466  157.3514 C.ar    1  UNL1        0.0726
     30 C         140.3484  145.6295  158.4575 C.ar    1  UNL1        0.0185
     31 C         141.1615  146.0208  156.0211 C.3     1  UNL1        0.4186
     32 F         141.0016  146.6950  154.6907 F       1  UNL1       -0.1659
     33 F         142.4869  145.4716  155.5834 F       1  UNL1       -0.1659
     34 F         139.8361  146.5700  156.4587 F       1  UNL1       -0.1659
@<TRIPOS>BOND
     1    21    22    1
     2    22    15    1
     3    15    16   ar
     4    16    17   ar
     5    17     1    1
     6     1     2   ar
     7     2     3   ar
     8     3     4   ar
     9     4     5   ar
    10     5     6   ar
    11     5     7    1
    12     7     8   ar
    13     8     9   ar
    14     9    10   ar
    15    10    23    1
    16    23    25    1
    17    25    26   ar
    18    26    27   ar
    19    27    28   ar
    20    28    29   ar
    21    29    31    1
    22    31    32    1
    23    31    33    1
    24    31    34    1
    25    29    30   ar
    26    10    11   ar
    27    11    12    1
    28    12    13    1
    29    13    14    1
    30    17    18   ar
    31    18    19   ar
    32    19    20   ar
    33    20    15   ar
    34     6     1   ar
    35    11     7   ar
    36    14     4    1
    37    30    25   ar
    38    23    24    1
@<TRIPOS>MOLECULE
*****
 34 38 0 0 0
SMALL
GASTEIGER

@<TRIPOS>ATOM
      1 C         139.6105  140.8162  167.0379 C.ar    1  UNL1        0.0004
      2 C         138.8468  139.5880  166.6402 C.ar    1  UNL1        0.0031
      3 C         138.2686  139.4784  165.2605 C.ar    1  UNL1        0.0370
      4 C         138.4542  140.5970  164.2785 C.ar    1  UNL1        0.1415
      5 C         139.2179  141.8251  164.6761 C.ar    1  UNL1        0.0699
      6 C         139.7961  141.9347  166.0558 C.ar    1  UNL1        0.0061
      7 C         139.5169  143.0463  163.8581 C.ar    1  UNL1        0.1704
      8 N         140.2980  144.2174  164.3764 N.ar    1  UNL1       -0.1273
      9 N         140.3897  145.2358  163.2788 N.ar    1  UNL1       -0.1127
     10 C         139.6654  144.6941  162.0823 C.ar    1  UNL1        0.2224
     11 N         139.1259  143.3409  162.4402 N.ar    1  UNL1       -0.2796
     12 C         138.3394  142.4871  161.4902 C.3     1  UNL1        0.1574
     13 C         137.7496  141.1279  161.7235 C.3     1  UNL1        0.2299
     14 O         137.8007  140.2867  162.9644 O.3     1  UNL1       -0.4733
     15 C         141.8619  142.0223  170.0755 C.ar    1  UNL1        0.0590
     16 C         141.2836  141.9127  168.6958 C.ar    1  UNL1        0.0147
     17 C         140.1888  140.9258  168.4176 C.ar    1  UNL1        0.0027
     18 C         139.6722  140.0485  169.5192 C.ar    1  UNL1        0.0207
     19 C         140.2503  140.1581  170.8989 C.ar    1  UNL1        0.0984
     20 N         141.3452  141.1450  171.1771 N.ar    1  UNL1       -0.2482
     21 C         144.3728  142.6830  169.9818 C.3     1  UNL1        0.0067
     22 C         142.9567  143.0092  170.3537 C.3     1  UNL1        0.0458
     23 N         139.5081  145.3844  160.7598 N.pl3   1  UNL1       -0.2826
     24 H         138.7674  146.0177  160.6202 H       1  UNL1        0.1551
     25 C         140.4793  145.1098  159.6502 C.ar    1  UNL1        0.0504
     26 C         140.3410  145.8244  158.3386 C.ar    1  UNL1        0.0147
     27 C         141.3123  145.5497  157.2289 C.ar    1  UNL1        0.0012
     28 C         142.4217  144.5606  157.4309 C.ar    1  UNL1        0.0039
     29 C         142.5599  143.8460  158.7425 C.ar    1  UNL1        0.0726
     30 C         141.5886  144.1207  159.8522 C.ar    1  UNL1        0.0185
     31 C         143.6693  142.8569  158.9445 C.3     1  UNL1        0.4186
     32 F         144.7787  141.8677  159.1464 F       1  UNL1       -0.1659
     33 F         143.5511  142.4316  157.5109 F       1  UNL1       -0.1659
     34 F         143.7875  143.2822  160.3780 F       1  UNL1       -0.1659
@<TRIPOS>BOND
     1    21    22    1
     2    22    15    1
     3    15    16   ar
     4    16    17   ar
     5    17     1    1
     6     1     2   ar
     7     2     3   ar
     8     3     4   ar
     9     4     5   ar
    10     5     6   ar
    11     5     7    1
    12     7     8   ar
    13     8     9   ar
    14     9    10   ar
    15    10    23    1
    16    23    25    1
    17    25    26   ar
    18    26    27   ar
    19    27    28   ar
    20    28    29   ar
    21    29    31    1
    22    31    32    1
    23    31    33    1
    24    31    34    1
    25    29    30   ar
    26    10    11   ar
    27    11    12    1
    28    12    13    1
    29    13    14    1
    30    17    18   ar
    31    18    19   ar
    32    19    20   ar
    33    20    15   ar
    34     6     1   ar
    35    11     7   ar
    36    14     4    1
    37    30    25   ar
    38    23    24    1
@<TRIPOS>MOLECULE
*****
 34 38 0 0 0
SMALL
GASTEIGER

@<TRIPOS>ATOM
      1 C         142.7963  140.4935  166.0496 C.ar    1  UNL1        0.0004
      2 C         143.7064  139.4320  165.5065 C.ar    1  UNL1        0.0031
      3 C         144.1910  139.5129  164.0893 C.ar    1  UNL1        0.0370
      4 C         143.7657  140.6553  163.2152 C.ar    1  UNL1        0.1415
      5 C         142.8556  141.7168  163.7584 C.ar    1  UNL1        0.0699
      6 C         142.3710  141.6359  165.1756 C.ar    1  UNL1        0.0061
      7 C         142.3150  142.9308  163.0628 C.ar    1  UNL1        0.1704
      8 N         141.4056  143.9248  163.7223 N.ar    1  UNL1       -0.1273
      9 N         141.0794  144.9915  162.7194 N.ar    1  UNL1       -0.1127
     10 C         141.7873  144.6567  161.4400 C.ar    1  UNL1        0.2224
     11 N         142.5509  143.3832  161.6522 N.ar    1  UNL1       -0.2796
     12 C         143.3857  142.7333  160.5889 C.3     1  UNL1        0.1574
     13 C         144.1908  141.4705  160.6734 C.3     1  UNL1        0.2299
     14 O         144.3599  140.5457  161.8423 O.3     1  UNL1       -0.4733
     15 C         140.9209  141.3959  169.4288 C.ar    1  UNL1        0.0590
     16 C         141.4057  141.4768  168.0116 C.ar    1  UNL1        0.0147
     17 C         142.3116  140.4126  167.4669 C.ar    1  UNL1        0.0027
     18 C         142.7329  139.2675  168.3394 C.ar    1  UNL1        0.0207
     19 C         142.2482  139.1865  169.7566 C.ar    1  UNL1        0.0984
     20 N         141.3422  140.2507  170.3013 N.ar    1  UNL1       -0.2482
     21 C         140.4335  143.8996  169.9225 C.3     1  UNL1        0.0067
     22 C         140.0150  142.4600  169.9735 C.3     1  UNL1        0.0458
     23 N         141.7398  145.4554  160.1712 N.pl3   1  UNL1       -0.2826
     24 H         142.2748  146.2775  160.0867 H       1  UNL1        0.1551
     25 C         140.8771  145.0015  159.0310 C.ar    1  UNL1        0.0504
     26 C         140.1008  143.7228  159.1408 C.ar    1  UNL1        0.0147
     27 C         139.2382  143.2689  158.0006 C.ar    1  UNL1        0.0012
     28 C         139.1520  144.0939  156.7508 C.ar    1  UNL1        0.0039
     29 C         139.9283  145.3726  156.6411 C.ar    1  UNL1        0.0726
     30 C         140.7909  145.8264  157.7813 C.ar    1  UNL1        0.0185
     31 C         139.8421  146.1976  155.3913 C.3     1  UNL1        0.4186
     32 F         139.7558  147.0225  154.1415 F       1  UNL1       -0.1659
     33 F         138.3567  146.3095  155.5677 F       1  UNL1       -0.1659
     34 F         141.3274  146.0857  155.2149 F       1  UNL1       -0.1659
@<TRIPOS>BOND
     1    21    22    1
     2    22    15    1
     3    15    16   ar
     4    16    17   ar
     5    17     1    1
     6     1     2   ar
     7     2     3   ar
     8     3     4   ar
     9     4     5   ar
    10     5     6   ar
    11     5     7    1
    12     7     8   ar
    13     8     9   ar
    14     9    10   ar
    15    10    23    1
    16    23    25    1
    17    25    26   ar
    18    26    27   ar
    19    27    28   ar
    20    28    29   ar
    21    29    31    1
    22    31    32    1
    23    31    33    1
    24    31    34    1
    25    29    30   ar
    26    10    11   ar
    27    11    12    1
    28    12    13    1
    29    13    14    1
    30    17    18   ar
    31    18    19   ar
    32    19    20   ar
    33    20    15   ar
    34     6     1   ar
    35    11     7   ar
    36    14     4    1
    37    30    25   ar
    38    23    24    1
@<TRIPOS>MOLECULE
*****
 34 38 0 0 0
SMALL
GASTEIGER

@<TRIPOS>ATOM
      1 C         139.4314  143.0236  156.5833 C.ar    1  UNL1        0.0004
      2 C         139.0307  141.6784  156.0545 C.ar    1  UNL1        0.0031
      3 C         138.4662  140.6451  156.9838 C.ar    1  UNL1        0.0370
      4 C         138.3024  140.9571  158.4418 C.ar    1  UNL1        0.1415
      5 C         138.7031  142.3023  158.9706 C.ar    1  UNL1        0.0699
      6 C         139.2676  143.3356  158.0413 C.ar    1  UNL1        0.0061
      7 C         138.6243  142.8155  160.3778 C.ar    1  UNL1        0.1704
      8 N         139.0611  144.1927  160.7809 N.ar    1  UNL1       -0.1273
      9 N         138.8319  144.3385  162.2562 N.ar    1  UNL1       -0.1127
     10 C         138.2535  143.0514  162.7648 C.ar    1  UNL1        0.2224
     11 N         138.1251  142.1101  161.6039 N.ar    1  UNL1       -0.2796
     12 C         137.5816  140.7174  161.7256 C.3     1  UNL1        0.1574
     13 C         137.4030  139.6860  160.6512 C.3     1  UNL1        0.2299
     14 O         137.7238  139.7927  159.1898 O.3     1  UNL1       -0.4733
     15 C         140.0620  146.5039  154.7830 C.ar    1  UNL1        0.0590
     16 C         139.4974  145.4705  155.7123 C.ar    1  UNL1        0.0147
     17 C         139.9960  144.0570  155.6540 C.ar    1  UNL1        0.0027
     18 C         141.0590  143.6768  154.6664 C.ar    1  UNL1        0.0207
     19 C         141.6236  144.7100  153.7371 C.ar    1  UNL1        0.0984
     20 N         141.1250  146.1236  153.7954 N.ar    1  UNL1       -0.2482
     21 C         140.0075  148.9124  153.8104 C.3     1  UNL1        0.0067
     22 C         139.5634  147.9173  154.8413 C.3     1  UNL1        0.0458
     23 N         137.8706  142.7573  164.1850 N.pl3   1  UNL1       -0.2826
     24 H         137.1134  143.2311  164.5989 H       1  UNL1        0.1551
     25 C         138.6414  141.7412  164.9746 C.ar    1  UNL1        0.0504
     26 C         140.0051  142.0776  165.5010 C.ar    1  UNL1        0.0147
     27 C         140.7759  141.0614  166.2906 C.ar    1  UNL1        0.0012
     28 C         140.1829  139.7090  166.5537 C.ar    1  UNL1        0.0039
     29 C         138.8192  139.3726  166.0273 C.ar    1  UNL1        0.0726
     30 C         138.0485  140.3888  165.2377 C.ar    1  UNL1        0.0185
     31 C         138.2262  138.0202  166.2904 C.3     1  UNL1        0.4186
     32 F         137.6332  136.6678  166.5536 F       1  UNL1       -0.1659
     33 F         137.2861  138.6268  167.2896 F       1  UNL1       -0.1659
     34 F         139.1662  137.4136  165.2913 F       1  UNL1       -0.1659
@<TRIPOS>BOND
     1    21    22    1
     2    22    15    1
     3    15    16   ar
     4    16    17   ar
     5    17     1    1
     6     1     2   ar
     7     2     3   ar
     8     3     4   ar
     9     4     5   ar
    10     5     6   ar
    11     5     7    1
    12     7     8   ar
    13     8     9   ar
    14     9    10   ar
    15    10    23    1
    16    23    25    1
    17    25    26   ar
    18    26    27   ar
    19    27    28   ar
    20    28    29   ar
    21    29    31    1
    22    31    32    1
    23    31    33    1
    24    31    34    1
    25    29    30   ar
    26    10    11   ar
    27    11    12    1
    28    12    13    1
    29    13    14    1
    30    17    18   ar
    31    18    19   ar
    32    19    20   ar
    33    20    15   ar
    34     6     1   ar
    35    11     7   ar
    36    14     4    1
    37    30    25   ar
    38    23    24    1
@<TRIPOS>MOLECULE
*****
 34 38 0 0 0
SMALL
GASTEIGER

@<TRIPOS>ATOM
      1 C         141.1106  139.9837  165.3060 C.ar    1  UNL1        0.0004
      2 C         142.4128  139.2401  165.3386 C.ar    1  UNL1        0.0031
      3 C         143.5137  139.6136  164.3908 C.ar    1  UNL1        0.0370
      4 C         143.3124  140.7308  163.4103 C.ar    1  UNL1        0.1415
      5 C         142.0101  141.4745  163.3777 C.ar    1  UNL1        0.0699
      6 C         140.9092  141.1009  164.3255 C.ar    1  UNL1        0.0061
      7 C         141.6042  142.6110  162.4870 C.ar    1  UNL1        0.1704
      8 N         140.2607  143.2746  162.5543 N.ar    1  UNL1       -0.1273
      9 N         140.2265  144.3583  161.5177 N.ar    1  UNL1       -0.1127
     10 C         141.5489  144.3645  160.8098 C.ar    1  UNL1        0.2224
     11 N         142.4004  143.2847  161.4088 N.ar    1  UNL1       -0.2796
     12 C         143.7991  142.9880  160.9552 C.3     1  UNL1        0.1574
     13 C         144.7470  141.9446  161.4675 C.3     1  UNL1        0.2299
     14 O         144.5304  140.9400  162.5602 O.3     1  UNL1       -0.4733
     15 C         138.8836  139.8125  168.5866 C.ar    1  UNL1        0.0590
     16 C         139.9846  140.1860  167.6387 C.ar    1  UNL1        0.0147
     17 C         140.0096  139.6102  166.2539 C.ar    1  UNL1        0.0027
     18 C         138.9336  138.6609  165.8169 C.ar    1  UNL1        0.0207
     19 C         137.8326  138.2873  166.7646 C.ar    1  UNL1        0.0984
     20 N         137.8076  138.8632  168.1496 N.ar    1  UNL1       -0.2482
     21 C         139.8036  141.4929  170.3415 C.3     1  UNL1        0.0067
     22 C         138.8587  140.3883  169.9714 C.3     1  UNL1        0.0458
     23 N         141.9494  145.2884  159.6980 N.pl3   1  UNL1       -0.2826
     24 H         142.6072  146.0019  159.8638 H       1  UNL1        0.1551
     25 C         141.3477  145.1254  158.3337 C.ar    1  UNL1        0.0504
     26 C         141.5307  143.8403  157.5821 C.ar    1  UNL1        0.0147
     27 C         140.9289  143.6773  156.2177 C.ar    1  UNL1        0.0012
     28 C         140.1442  144.7993  155.6052 C.ar    1  UNL1        0.0039
     29 C         139.9612  146.0844  156.3569 C.ar    1  UNL1        0.0726
     30 C         140.5630  146.2474  157.7212 C.ar    1  UNL1        0.0185
     31 C         139.1765  147.2064  155.7444 C.3     1  UNL1        0.4186
     32 F         138.3918  148.3285  155.1317 F       1  UNL1       -0.1659
     33 F         139.3687  146.5994  154.3862 F       1  UNL1       -0.1659
     34 F         138.9844  147.8135  157.1024 F       1  UNL1       -0.1659
@<TRIPOS>BOND
     1    21    22    1
     2    22    15    1
     3    15    16   ar
     4    16    17   ar
     5    17     1    1
     6     1     2   ar
     7     2     3   ar
     8     3     4   ar
     9     4     5   ar
    10     5     6   ar
    11     5     7    1
    12     7     8   ar
    13     8     9   ar
    14     9    10   ar
    15    10    23    1
    16    23    25    1
    17    25    26   ar
    18    26    27   ar
    19    27    28   ar
    20    28    29   ar
    21    29    31    1
    22    31    32    1
    23    31    33    1
    24    31    34    1
    25    29    30   ar
    26    10    11   ar
    27    11    12    1
    28    12    13    1
    29    13    14    1
    30    17    18   ar
    31    18    19   ar
    32    19    20   ar
    33    20    15   ar
    34     6     1   ar
    35    11     7   ar
    36    14     4    1
    37    30    25   ar
    38    23    24    1
@<TRIPOS>MOLECULE
*****
 34 38 0 0 0
SMALL
GASTEIGER

@<TRIPOS>ATOM
      1 C         143.0856  140.5824  165.8458 C.ar    1  UNL1        0.0004
      2 C         143.9143  139.4812  165.2536 C.ar    1  UNL1        0.0031
      3 C         144.2764  139.5148  163.7984 C.ar    1  UNL1        0.0370
      4 C         143.8099  140.6495  162.9354 C.ar    1  UNL1        0.1415
      5 C         142.9812  141.7507  163.5276 C.ar    1  UNL1        0.0699
      6 C         142.6191  141.7171  164.9828 C.ar    1  UNL1        0.0061
      7 C         142.4175  142.9646  162.8505 C.ar    1  UNL1        0.1704
      8 N         141.5975  144.0009  163.5602 N.ar    1  UNL1       -0.1273
      9 N         141.2164  145.0539  162.5623 N.ar    1  UNL1       -0.1127
     10 C         141.8009  144.6684  161.2357 C.ar    1  UNL1        0.2224
     11 N         142.5432  143.3771  161.4138 N.ar    1  UNL1       -0.2796
     12 C         143.2636  142.6777  160.2995 C.3     1  UNL1        0.1574
     13 C         144.0364  141.3929  160.3466 C.3     1  UNL1        0.2299
     14 O         144.2795  140.4903  161.5197 O.3     1  UNL1       -0.4733
     15 C         142.0004  141.7849  169.4689 C.ar    1  UNL1        0.0590
     16 C         142.3626  141.8185  168.0136 C.ar    1  UNL1        0.0147
     17 C         142.7234  140.5488  167.3011 C.ar    1  UNL1        0.0027
     18 C         142.7220  139.2456  168.0437 C.ar    1  UNL1        0.0207
     19 C         142.3598  139.2120  169.4989 C.ar    1  UNL1        0.0984
     20 N         141.9990  140.4817  170.2116 N.ar    1  UNL1       -0.2482
     21 C         140.4624  143.8633  169.7231 C.3     1  UNL1        0.0067
     22 C         141.6397  143.0546  170.1814 C.3     1  UNL1        0.0458
     23 N         141.6666  145.4390  159.9558 N.pl3   1  UNL1       -0.2826
     24 H         142.1613  146.2814  159.8341 H       1  UNL1        0.1551
     25 C         140.7784  144.9261  158.8611 C.ar    1  UNL1        0.0504
     26 C         140.7012  145.6570  157.5536 C.ar    1  UNL1        0.0147
     27 C         139.8131  145.1441  156.4590 C.ar    1  UNL1        0.0012
     28 C         139.0022  143.9003  156.6720 C.ar    1  UNL1        0.0039
     29 C         139.0794  143.1693  157.9795 C.ar    1  UNL1        0.0726
     30 C         139.9676  143.6823  159.0741 C.ar    1  UNL1        0.0185
     31 C         138.2686  141.9255  158.1925 C.3     1  UNL1        0.4186
     32 F         137.4578  140.6817  158.4057 F       1  UNL1       -0.1659
     33 F         138.1268  142.2669  159.6463 F       1  UNL1       -0.1659
     34 F         138.4104  141.5840  156.7389 F       1  UNL1       -0.1659
@<TRIPOS>BOND
     1    21    22    1
     2    22    15    1
     3    15    16   ar
     4    16    17   ar
     5    17     1    1
     6     1     2   ar
     7     2     3   ar
     8     3     4   ar
     9     4     5   ar
    10     5     6   ar
    11     5     7    1
    12     7     8   ar
    13     8     9   ar
    14     9    10   ar
    15    10    23    1
    16    23    25    1
    17    25    26   ar
    18    26    27   ar
    19    27    28   ar
    20    28    29   ar
    21    29    31    1
    22    31    32    1
    23    31    33    1
    24    31    34    1
    25    29    30   ar
    26    10    11   ar
    27    11    12    1
    28    12    13    1
    29    13    14    1
    30    17    18   ar
    31    18    19   ar
    32    19    20   ar
    33    20    15   ar
    34     6     1   ar
    35    11     7   ar
    36    14     4    1
    37    30    25   ar
    38    23    24    1
@<TRIPOS>MOLECULE
*****
 34 38 0 0 0
SMALL
GASTEIGER

@<TRIPOS>ATOM
      1 C         143.7067  142.7195  158.5952 C.ar    1  UNL1        0.0004
      2 C         142.6548  143.7189  158.2150 C.ar    1  UNL1        0.0031
      3 C         141.8601  144.4135  159.2808 C.ar    1  UNL1        0.0370
      4 C         142.1173  144.1086  160.7268 C.ar    1  UNL1        0.1415
      5 C         143.1692  143.1092  161.1070 C.ar    1  UNL1        0.0699
      6 C         143.9639  142.4146  160.0412 C.ar    1  UNL1        0.0061
      7 C         143.5824  142.6620  162.4778 C.ar    1  UNL1        0.1704
      8 N         144.6579  141.6464  162.7265 N.ar    1  UNL1       -0.1273
      9 N         144.7859  141.4605  164.2095 N.ar    1  UNL1       -0.1127
     10 C         143.7896  142.3612  164.8772 C.ar    1  UNL1        0.2224
     11 N         143.0457  143.1038  163.8070 N.ar    1  UNL1       -0.2796
     12 C         141.9633  144.1019  164.0937 C.3     1  UNL1        0.1574
     13 C         141.1503  144.9047  163.1220 C.3     1  UNL1        0.2299
     14 O         141.2188  144.9077  161.6235 O.3     1  UNL1       -0.4733
     15 C         146.7052  141.7590  156.1791 C.ar    1  UNL1        0.0590
     16 C         145.9104  142.4537  157.2449 C.ar    1  UNL1        0.0147
     17 C         144.5015  142.0248  157.5294 C.ar    1  UNL1        0.0027
     18 C         143.8872  140.9013  156.7480 C.ar    1  UNL1        0.0207
     19 C         144.6819  140.2067  155.6823 C.ar    1  UNL1        0.0984
     20 N         146.0909  140.6355  155.3978 N.ar    1  UNL1       -0.2482
     21 C         148.6019  142.2694  154.4786 C.3     1  UNL1        0.0067
     22 C         148.1141  142.1879  155.8947 C.3     1  UNL1        0.0458
     23 N         143.5748  142.4957  166.3557 N.pl3   1  UNL1       -0.2826
     24 H         144.2348  142.9744  166.9074 H       1  UNL1        0.1551
     25 C         142.3545  141.9007  166.9936 C.ar    1  UNL1        0.0504
     26 C         141.7728  140.6268  166.4561 C.ar    1  UNL1        0.0147
     27 C         140.5524  140.0319  167.0941 C.ar    1  UNL1        0.0012
     28 C         139.9139  140.7109  168.2693 C.ar    1  UNL1        0.0039
     29 C         140.4956  141.9848  168.8067 C.ar    1  UNL1        0.0726
     30 C         141.7160  142.5797  168.1688 C.ar    1  UNL1        0.0185
     31 C         139.8571  142.6638  169.9819 C.3     1  UNL1        0.4186
     32 F         139.2186  143.3429  171.1572 F       1  UNL1       -0.1659
     33 F         140.6367  143.9105  169.6851 F       1  UNL1       -0.1659
     34 F         139.0776  141.4172  170.2788 F       1  UNL1       -0.1659
@<TRIPOS>BOND
     1    21    22    1
     2    22    15    1
     3    15    16   ar
     4    16    17   ar
     5    17     1    1
     6     1     2   ar
     7     2     3   ar
     8     3     4   ar
     9     4     5   ar
    10     5     6   ar
    11     5     7    1
    12     7     8   ar
    13     8     9   ar
    14     9    10   ar
    15    10    23    1
    16    23    25    1
    17    25    26   ar
    18    26    27   ar
    19    27    28   ar
    20    28    29   ar
    21    29    31    1
    22    31    32    1
    23    31    33    1
    24    31    34    1
    25    29    30   ar
    26    10    11   ar
    27    11    12    1
    28    12    13    1
    29    13    14    1
    30    17    18   ar
    31    18    19   ar
    32    19    20   ar
    33    20    15   ar
    34     6     1   ar
    35    11     7   ar
    36    14     4    1
    37    30    25   ar
    38    23    24    1
@<TRIPOS>MOLECULE
*****
 34 38 0 0 0
SMALL
GASTEIGER

@<TRIPOS>ATOM
      1 C         139.4785  141.8331  164.4813 C.ar    1  UNL1        0.0004
      2 C         140.1967  143.1258  164.7322 C.ar    1  UNL1        0.0031
      3 C         140.5155  144.0410  163.5873 C.ar    1  UNL1        0.0370
      4 C         140.1160  143.6635  162.1916 C.ar    1  UNL1        0.1415
      5 C         139.3977  142.3708  161.9408 C.ar    1  UNL1        0.0699
      6 C         139.0790  141.4556  163.0856 C.ar    1  UNL1        0.0061
      7 C         138.9134  141.8076  160.6377 C.ar    1  UNL1        0.1704
      8 N         138.2022  140.4922  160.5193 N.ar    1  UNL1       -0.1273
      9 N         137.8771  140.2697  159.0719 N.ar    1  UNL1       -0.1127
     10 C         138.3873  141.4475  158.2959 C.ar    1  UNL1        0.2224
     11 N         139.0278  142.3980  159.2635 N.ar    1  UNL1       -0.2796
     12 C         139.6548  143.6974  158.8531 C.3     1  UNL1        0.1574
     13 C         140.3221  144.7274  159.7154 C.3     1  UNL1        0.2299
     14 O         140.5274  144.7123  161.2013 O.3     1  UNL1       -0.4733
     15 C         139.4789  140.2259  168.1100 C.ar    1  UNL1        0.0590
     16 C         139.7977  141.1412  166.9652 C.ar    1  UNL1        0.0147
     17 C         139.1597  140.9177  165.6262 C.ar    1  UNL1        0.0027
     18 C         138.2028  139.7790  165.4319 C.ar    1  UNL1        0.0207
     19 C         137.8840  138.8637  166.5767 C.ar    1  UNL1        0.0984
     20 N         138.5221  139.0871  167.9158 N.ar    1  UNL1       -0.2482
     21 C         139.7955  141.6851  170.2361 C.3     1  UNL1        0.0067
     22 C         140.1169  140.4493  169.4490 C.3     1  UNL1        0.0458
     23 N         138.2765  141.6408  156.8125 N.pl3   1  UNL1       -0.2826
     24 H         138.8632  142.2855  156.3549 H       1  UNL1        0.1551
     25 C         137.2718  140.8519  156.0262 C.ar    1  UNL1        0.0504
     26 C         137.7245  139.9764  154.8954 C.ar    1  UNL1        0.0147
     27 C         136.7197  139.1875  154.1092 C.ar    1  UNL1        0.0012
     28 C         135.2625  139.2740  154.4538 C.ar    1  UNL1        0.0039
     29 C         134.8098  140.1494  155.5846 C.ar    1  UNL1        0.0726
     30 C         135.8146  140.9384  156.3708 C.ar    1  UNL1        0.0185
     31 C         133.3525  140.2359  155.9292 C.3     1  UNL1        0.4186
     32 F         131.8952  140.3224  156.2738 F       1  UNL1       -0.1659
     33 F         133.3467  138.7754  156.2712 F       1  UNL1       -0.1659
     34 F         133.3583  141.6964  155.5872 F       1  UNL1       -0.1659
@<TRIPOS>BOND
     1    21    22    1
     2    22    15    1
     3    15    16   ar
     4    16    17   ar
     5    17     1    1
     6     1     2   ar
     7     2     3   ar
     8     3     4   ar
     9     4     5   ar
    10     5     6   ar
    11     5     7    1
    12     7     8   ar
    13     8     9   ar
    14     9    10   ar
    15    10    23    1
    16    23    25    1
    17    25    26   ar
    18    26    27   ar
    19    27    28   ar
    20    28    29   ar
    21    29    31    1
    22    31    32    1
    23    31    33    1
    24    31    34    1
    25    29    30   ar
    26    10    11   ar
    27    11    12    1
    28    12    13    1
    29    13    14    1
    30    17    18   ar
    31    18    19   ar
    32    19    20   ar
    33    20    15   ar
    34     6     1   ar
    35    11     7   ar
    36    14     4    1
    37    30    25   ar
    38    23    24    1
@<TRIPOS>MOLECULE
*****
 34 38 0 0 0
SMALL
GASTEIGER

@<TRIPOS>ATOM
      1 C         140.6493  143.0079  165.8175 C.ar    1  UNL1        0.0004
      2 C         139.5058  143.9782  165.8466 C.ar    1  UNL1        0.0031
      3 C         139.1836  144.7943  164.6300 C.ar    1  UNL1        0.0370
      4 C         140.0049  144.6400  163.3843 C.ar    1  UNL1        0.1415
      5 C         141.1483  143.6696  163.3552 C.ar    1  UNL1        0.0699
      6 C         141.4705  142.8536  164.5719 C.ar    1  UNL1        0.0061
      7 C         142.0865  143.3633  162.2257 C.ar    1  UNL1        0.1704
      8 N         143.1996  142.3626  162.3241 N.ar    1  UNL1       -0.1273
      9 N         143.9139  142.3326  161.0055 N.ar    1  UNL1       -0.1127
     10 C         143.2423  143.3147  160.0921 C.ar    1  UNL1        0.2224
     11 N         142.1130  143.9518  160.8462 N.ar    1  UNL1       -0.2796
     12 C         141.2077  144.9918  160.2555 C.3     1  UNL1        0.1574
     13 C         140.0525  145.7003  160.8985 C.3     1  UNL1        0.2299
     14 O         139.5172  145.5437  162.2910 O.3     1  UNL1       -0.4733
     15 C         142.1321  140.1384  168.1236 C.ar    1  UNL1        0.0590
     16 C         141.8099  140.9545  166.9069 C.ar    1  UNL1        0.0147
     17 C         140.9715  142.1918  167.0342 C.ar    1  UNL1        0.0027
     18 C         140.4554  142.6130  168.3781 C.ar    1  UNL1        0.0207
     19 C         140.7776  141.7970  169.5948 C.ar    1  UNL1        0.0984
     20 N         141.6160  140.5596  169.4675 N.ar    1  UNL1       -0.2482
     21 C         143.4397  138.4488  166.6452 C.3     1  UNL1        0.0067
     22 C         142.9704  138.9011  167.9962 C.3     1  UNL1        0.0458
     23 N         143.6319  143.6082  158.6735 N.pl3   1  UNL1       -0.2826
     24 H         143.5277  144.5183  158.3128 H       1  UNL1        0.1551
     25 C         144.1800  142.5152  157.8047 C.ar    1  UNL1        0.0504
     26 C         143.3774  141.2698  157.5704 C.ar    1  UNL1        0.0147
     27 C         143.9256  140.1768  156.7015 C.ar    1  UNL1        0.0012
     28 C         145.2762  140.3292  156.0671 C.ar    1  UNL1        0.0039
     29 C         146.0788  141.5746  156.3014 C.ar    1  UNL1        0.0726
     30 C         145.5306  142.6676  157.1703 C.ar    1  UNL1        0.0185
     31 C         147.4294  141.7271  155.6670 C.3     1  UNL1        0.4186
     32 F         148.7801  141.8796  155.0327 F       1  UNL1       -0.1659
     33 F         147.9248  142.4368  156.8922 F       1  UNL1       -0.1659
     34 F         146.9341  141.0174  154.4419 F       1  UNL1       -0.1659
@<TRIPOS>BOND
     1    21    22    1
     2    22    15    1
     3    15    16   ar
     4    16    17   ar
     5    17     1    1
     6     1     2   ar
     7     2     3   ar
     8     3     4   ar
     9     4     5   ar
    10     5     6   ar
    11     5     7    1
    12     7     8   ar
    13     8     9   ar
    14     9    10   ar
    15    10    23    1
    16    23    25    1
    17    25    26   ar
    18    26    27   ar
    19    27    28   ar
    20    28    29   ar
    21    29    31    1
    22    31    32    1
    23    31    33    1
    24    31    34    1
    25    29    30   ar
    26    10    11   ar
    27    11    12    1
    28    12    13    1
    29    13    14    1
    30    17    18   ar
    31    18    19   ar
    32    19    20   ar
    33    20    15   ar
    34     6     1   ar
    35    11     7   ar
    36    14     4    1
    37    30    25   ar
    38    23    24    1
