@<TRIPOS>MOLECULE
*****
 30 33 0 0 0
SMALL
GASTEIGER

@<TRIPOS>ATOM
      1 N         142.4241  140.5127  166.1836 N.ar    1  UNL1       -0.1928
      2 N         142.6468  140.2551  167.6445 N.ar    1  UNL1       -0.0582
      3 N         141.3410  139.8237  168.2434 N.ar    1  UNL1       -0.1268
      4 C         140.3112  139.8147  167.1527 C.ar    1  UNL1        0.1403
      5 C         138.8505  139.4739  167.1542 C.ar    1  UNL1        0.0270
      6 C         138.0593  139.5588  165.8828 C.ar    1  UNL1        0.0358
      7 C         138.7287  139.9846  164.6098 C.ar    1  UNL1        0.1303
      8 N         140.1894  140.3255  164.6082 N.ar    1  UNL1       -0.2104
      9 C         140.9807  140.2406  165.8797 C.ar    1  UNL1        0.1859
     10 C         144.4656  142.8131  163.6754 C.ar    1  UNL1        0.1483
     11 C         145.5395  141.8647  163.2312 C.ar    1  UNL1        0.0373
     12 C         145.5749  140.4657  163.7711 C.ar    1  UNL1        0.0047
     13 C         144.5365  140.0151  164.7552 C.ar    1  UNL1        0.0195
     14 C         143.4626  140.9633  165.1995 C.ar    1  UNL1        0.0891
     15 C         143.4272  142.3624  164.6596 C.ar    1  UNL1        0.0564
     16 O         144.4301  144.2121  163.1356 O.3     1  UNL1       -0.4044
     17 F         142.1609  146.0390  163.8520 F       1  UNL1       -0.1328
     18 C         143.2956  145.1255  163.4938 C.3     1  UNL1        0.5753
     19 F         142.5223  144.6302  162.3077 F       1  UNL1       -0.1328
     20 F         144.0688  145.6208  164.6798 F       1  UNL1       -0.1328
     21 N         137.9374  140.0695  163.3383 N.pl3   1  UNL1       -0.3181
     22 H         137.8822  139.2897  162.7398 H       1  UNL1        0.1482
     23 C         137.2301  141.3424  162.9787 C.3     1  UNL1        0.0882
     24 C         137.8827  142.6655  163.2501 C.3     1  UNL1        0.0223
     25 C         138.5838  143.3968  162.1440 C.3     1  UNL1        0.0188
     26 C         139.2364  144.7199  162.4154 C.3     1  UNL1        0.0686
     27 N         139.1878  145.3116  163.7929 N.3     1  UNL1       -0.2975
     28 C         138.4866  144.5802  164.8990 C.3     1  UNL1        0.0686
     29 C         137.8341  143.2572  164.6276 C.3     1  UNL1        0.0188
     30 H         138.7336  146.2208  163.7069 H       1  UNL1        0.1232
@<TRIPOS>BOND
     1    17    18    1
     2    18    19    1
     3    18    20    1
     4    18    16    1
     5    16    10    1
     6    10    11   ar
     7    11    12   ar
     8    12    13   ar
     9    13    14   ar
    10    14     1    1
    11     1     2   ar
    12     2     3   ar
    13     3     4   ar
    14     4     5   ar
    15     5     6   ar
    16     6     7   ar
    17     7    21    1
    18    21    23    1
    19    23    24    1
    20    24    25    1
    21    25    26    1
    22    26    27    1
    23    27    28    1
    24    28    29    1
    25     7     8   ar
    26     8     9   ar
    27    14    15   ar
    28    15    10   ar
    29     9     1   ar
    30     9     4   ar
    31    29    24    1
    32    21    22    1
    33    27    30    1
@<TRIPOS>MOLECULE
*****
 30 33 0 0 0
SMALL
GASTEIGER

@<TRIPOS>ATOM
      1 N         138.7996  139.5538  166.7758 N.ar    1  UNL1       -0.1928
      2 N         137.9048  139.0756  167.8806 N.ar    1  UNL1       -0.0582
      3 N         138.4735  139.5615  169.1808 N.ar    1  UNL1       -0.1268
      4 C         139.7198  140.3400  168.8796 C.ar    1  UNL1        0.1403
      5 C         140.6970  141.0526  169.7668 C.ar    1  UNL1        0.0270
      6 C         141.8759  141.7604  169.1675 C.ar    1  UNL1        0.0358
      7 C         142.0775  141.7557  167.6812 C.ar    1  UNL1        0.1303
      8 N         141.1002  141.0431  166.7940 N.ar    1  UNL1       -0.2104
      9 C         139.9213  140.3353  167.3932 C.ar    1  UNL1        0.1859
     10 C         137.8609  140.1158  162.9609 C.ar    1  UNL1        0.1483
     11 C         138.2208  138.7802  162.3808 C.ar    1  UNL1        0.0373
     12 C         138.7735  137.7025  163.2656 C.ar    1  UNL1        0.0047
     13 C         138.9665  137.9604  164.7306 C.ar    1  UNL1        0.0195
     14 C         138.6067  139.2959  165.3108 C.ar    1  UNL1        0.0891
     15 C         138.0539  140.3737  164.4260 C.ar    1  UNL1        0.0564
     16 O         137.3081  141.1936  162.0762 O.3     1  UNL1       -0.4044
     17 F         138.8687  143.7170  161.6323 F       1  UNL1       -0.1328
     18 C         138.0884  142.4553  161.8543 C.3     1  UNL1        0.5753
     19 F         138.9141  141.7614  160.8119 F       1  UNL1       -0.1328
     20 F         137.2627  143.1493  162.8966 F       1  UNL1       -0.1328
     21 N         143.2565  142.4636  167.0819 N.pl3   1  UNL1       -0.3181
     22 H         143.7391  143.1447  167.6039 H       1  UNL1        0.1482
     23 C         143.7001  142.1338  165.6875 C.3     1  UNL1        0.0882
     24 C         143.4443  143.1017  164.5704 C.3     1  UNL1        0.0223
     25 C         144.4773  143.3036  163.5018 C.3     1  UNL1        0.0188
     26 C         144.2216  144.2715  162.3848 C.3     1  UNL1        0.0686
     27 N         142.9328  145.0374  162.3364 N.3     1  UNL1       -0.2975
     28 C         141.8998  144.8355  163.4050 C.3     1  UNL1        0.0686
     29 C         142.1555  143.8676  164.5220 C.3     1  UNL1        0.0188
     30 H         142.4867  144.8074  161.4484 H       1  UNL1        0.1232
@<TRIPOS>BOND
     1    17    18    1
     2    18    19    1
     3    18    20    1
     4    18    16    1
     5    16    10    1
     6    10    11   ar
     7    11    12   ar
     8    12    13   ar
     9    13    14   ar
    10    14     1    1
    11     1     2   ar
    12     2     3   ar
    13     3     4   ar
    14     4     5   ar
    15     5     6   ar
    16     6     7   ar
    17     7    21    1
    18    21    23    1
    19    23    24    1
    20    24    25    1
    21    25    26    1
    22    26    27    1
    23    27    28    1
    24    28    29    1
    25     7     8   ar
    26     8     9   ar
    27    14    15   ar
    28    15    10   ar
    29     9     1   ar
    30     9     4   ar
    31    29    24    1
    32    21    22    1
    33    27    30    1
@<TRIPOS>MOLECULE
*****
 30 33 0 0 0
SMALL
GASTEIGER

@<TRIPOS>ATOM
      1 N         143.1378  140.3597  165.2140 N.ar    1  UNL1       -0.1928
      2 N         144.1508  139.2623  165.0734 N.ar    1  UNL1       -0.0582
      3 N         145.1217  139.6624  164.0023 N.ar    1  UNL1       -0.1268
      4 C         144.7088  141.0070  163.4810 C.ar    1  UNL1        0.1403
      5 C         145.2910  141.8945  162.4212 C.ar    1  UNL1        0.0270
      6 C         144.6469  143.2130  162.1103 C.ar    1  UNL1        0.0358
      7 C         143.4208  143.6440  162.8592 C.ar    1  UNL1        0.1303
      8 N         142.8387  142.7564  163.9190 N.ar    1  UNL1       -0.2104
      9 C         143.4827  141.4379  164.2299 C.ar    1  UNL1        0.1859
     10 C         139.4971  139.8419  166.7067 C.ar    1  UNL1        0.1483
     11 C         139.6724  140.4084  168.0845 C.ar    1  UNL1        0.0373
     12 C         141.0028  140.9587  168.5054 C.ar    1  UNL1        0.0047
     13 C         142.1579  140.9424  167.5486 C.ar    1  UNL1        0.0195
     14 C         141.9827  140.3759  166.1709 C.ar    1  UNL1        0.0891
     15 C         140.6522  139.8256  165.7499 C.ar    1  UNL1        0.0564
     16 O         138.1668  139.2916  166.2856 O.3     1  UNL1       -0.4044
     17 F         137.3659  136.5172  167.0990 F       1  UNL1       -0.1328
     18 C         137.7663  137.9045  166.6923 C.3     1  UNL1        0.5753
     19 F         138.5296  137.3431  165.5294 F       1  UNL1       -0.1328
     20 F         137.0031  138.4657  167.8552 F       1  UNL1       -0.1328
     21 N         142.7768  144.9626  162.5482 N.pl3   1  UNL1       -0.3181
     22 H         143.2187  145.5939  161.9356 H       1  UNL1        0.1482
     23 C         141.4595  145.3192  163.1706 C.3     1  UNL1        0.0882
     24 C         140.2029  144.6452  162.7049 C.3     1  UNL1        0.0223
     25 C         138.9611  144.7114  163.5436 C.3     1  UNL1        0.0188
     26 C         137.7047  144.0374  163.0778 C.3     1  UNL1        0.0686
     27 N         137.6900  143.2973  161.7732 N.3     1  UNL1       -0.2975
     28 C         138.9317  143.2311  160.9344 C.3     1  UNL1        0.0686
     29 C         140.1882  143.9050  161.4002 C.3     1  UNL1        0.0188
     30 H         136.9682  143.7304  161.1971 H       1  UNL1        0.1232
@<TRIPOS>BOND
     1    17    18    1
     2    18    19    1
     3    18    20    1
     4    18    16    1
     5    16    10    1
     6    10    11   ar
     7    11    12   ar
     8    12    13   ar
     9    13    14   ar
    10    14     1    1
    11     1     2   ar
    12     2     3   ar
    13     3     4   ar
    14     4     5   ar
    15     5     6   ar
    16     6     7   ar
    17     7    21    1
    18    21    23    1
    19    23    24    1
    20    24    25    1
    21    25    26    1
    22    26    27    1
    23    27    28    1
    24    28    29    1
    25     7     8   ar
    26     8     9   ar
    27    14    15   ar
    28    15    10   ar
    29     9     1   ar
    30     9     4   ar
    31    29    24    1
    32    21    22    1
    33    27    30    1
@<TRIPOS>MOLECULE
*****
 30 33 0 0 0
SMALL
GASTEIGER

@<TRIPOS>ATOM
      1 N         142.1959  143.6702  163.1154 N.ar    1  UNL1       -0.1928
      2 N         143.0383  144.7352  162.4781 N.ar    1  UNL1       -0.0582
      3 N         144.4449  144.2220  162.3891 N.ar    1  UNL1       -0.1268
      4 C         144.4719  142.8399  162.9712 C.ar    1  UNL1        0.1403
      5 C         145.5826  141.8478  163.1506 C.ar    1  UNL1        0.0270
      6 C         145.3032  140.5147  163.7788 C.ar    1  UNL1        0.0358
      7 C         143.9132  140.1737  164.2277 C.ar    1  UNL1        0.1303
      8 N         142.8025  141.1657  164.0484 N.ar    1  UNL1       -0.2104
      9 C         143.0819  142.4988  163.4201 C.ar    1  UNL1        0.1859
     10 C         138.2942  142.9637  162.9468 C.ar    1  UNL1        0.1483
     11 C         137.7849  143.9415  163.9639 C.ar    1  UNL1        0.0373
     12 C         138.7459  144.8288  164.6982 C.ar    1  UNL1        0.0047
     13 C         140.2162  144.7384  164.4153 C.ar    1  UNL1        0.0195
     14 C         140.7256  143.7607  163.3982 C.ar    1  UNL1        0.0891
     15 C         139.7645  142.8733  162.6639 C.ar    1  UNL1        0.0564
     16 O         137.3333  142.0764  162.2125 O.3     1  UNL1       -0.4044
     17 F         137.6919  139.0986  162.2780 F       1  UNL1       -0.1328
     18 C         137.5126  140.5875  162.2452 C.3     1  UNL1        0.5753
     19 F         137.4470  140.6125  163.7436 F       1  UNL1       -0.1328
     20 F         137.5783  140.5625  160.7469 F       1  UNL1       -0.1328
     21 N         143.6339  138.8405  164.8560 N.pl3   1  UNL1       -0.3181
     22 H         143.4872  138.0497  164.2882 H       1  UNL1        0.1482
     23 C         143.5780  138.7121  166.3494 C.3     1  UNL1        0.0882
     24 C         142.3773  139.2069  167.1003 C.3     1  UNL1        0.0223
     25 C         142.4872  139.5306  168.5608 C.3     1  UNL1        0.0188
     26 C         141.2866  140.0253  169.3117 C.3     1  UNL1        0.0686
     27 N         139.9762  140.1963  168.6020 N.3     1  UNL1       -0.2975
     28 C         139.8663  139.8725  167.1415 C.3     1  UNL1        0.0686
     29 C         141.0669  139.3778  166.3907 C.3     1  UNL1        0.0188
     30 H         139.7097  141.1752  168.7074 H       1  UNL1        0.1232
@<TRIPOS>BOND
     1    17    18    1
     2    18    19    1
     3    18    20    1
     4    18    16    1
     5    16    10    1
     6    10    11   ar
     7    11    12   ar
     8    12    13   ar
     9    13    14   ar
    10    14     1    1
    11     1     2   ar
    12     2     3   ar
    13     3     4   ar
    14     4     5   ar
    15     5     6   ar
    16     6     7   ar
    17     7    21    1
    18    21    23    1
    19    23    24    1
    20    24    25    1
    21    25    26    1
    22    26    27    1
    23    27    28    1
    24    28    29    1
    25     7     8   ar
    26     8     9   ar
    27    14    15   ar
    28    15    10   ar
    29     9     1   ar
    30     9     4   ar
    31    29    24    1
    32    21    22    1
    33    27    30    1
@<TRIPOS>MOLECULE
*****
 30 33 0 0 0
SMALL
GASTEIGER

@<TRIPOS>ATOM
      1 N         138.8708  139.1575  165.2297 N.ar    1  UNL1       -0.1928
      2 N         139.0541  137.7454  164.7584 N.ar    1  UNL1       -0.0582
      3 N         138.7823  137.7100  163.2836 N.ar    1  UNL1       -0.1268
      4 C         138.4311  139.1003  162.8435 C.ar    1  UNL1        0.1403
      5 C         138.0686  139.6672  161.5030 C.ar    1  UNL1        0.0270
      6 C         137.7607  141.1288  161.3652 C.ar    1  UNL1        0.0358
      7 C         137.8154  142.0234  162.5679 C.ar    1  UNL1        0.1303
      8 N         138.1779  141.4565  163.9085 N.ar    1  UNL1       -0.2104
      9 C         138.4858  139.9950  164.0463 C.ar    1  UNL1        0.1859
     10 C         140.2689  141.1538  168.3619 C.ar    1  UNL1        0.1483
     11 C         139.3857  140.6245  169.4527 C.ar    1  UNL1        0.0373
     12 C         138.3308  139.6063  169.1357 C.ar    1  UNL1        0.0047
     13 C         138.1592  139.1173  167.7281 C.ar    1  UNL1        0.0195
     14 C         139.0424  139.6465  166.6373 C.ar    1  UNL1        0.0891
     15 C         140.0973  140.6648  166.9543 C.ar    1  UNL1        0.0564
     16 O         141.3238  142.1720  168.6787 O.3     1  UNL1       -0.4044
     17 F         140.5785  144.7176  170.0803 F       1  UNL1       -0.1328
     18 C         140.9511  143.4448  169.3795 C.3     1  UNL1        0.5753
     19 F         141.9381  143.1357  170.4659 F       1  UNL1       -0.1328
     20 F         139.9642  143.7539  168.2932 F       1  UNL1       -0.1328
     21 N         137.5075  143.4851  162.4301 N.pl3   1  UNL1       -0.3181
     22 H         136.7541  143.7786  161.8684 H       1  UNL1        0.1482
     23 C         138.3475  144.4994  163.1480 C.3     1  UNL1        0.0882
     24 C         139.8003  144.6479  162.8053 C.3     1  UNL1        0.0223
     25 C         140.7976  144.9542  163.8831 C.3     1  UNL1        0.0188
     26 C         142.2503  145.1027  163.5405 C.3     1  UNL1        0.0686
     27 N         142.7058  144.9449  162.1200 N.3     1  UNL1       -0.2975
     28 C         141.7086  144.6386  161.0423 C.3     1  UNL1        0.0686
     29 C         140.2558  144.4901  161.3849 C.3     1  UNL1        0.0188
     30 H         143.3894  144.1879  162.1124 H       1  UNL1        0.1232
@<TRIPOS>BOND
     1    17    18    1
     2    18    19    1
     3    18    20    1
     4    18    16    1
     5    16    10    1
     6    10    11   ar
     7    11    12   ar
     8    12    13   ar
     9    13    14   ar
    10    14     1    1
    11     1     2   ar
    12     2     3   ar
    13     3     4   ar
    14     4     5   ar
    15     5     6   ar
    16     6     7   ar
    17     7    21    1
    18    21    23    1
    19    23    24    1
    20    24    25    1
    21    25    26    1
    22    26    27    1
    23    27    28    1
    24    28    29    1
    25     7     8   ar
    26     8     9   ar
    27    14    15   ar
    28    15    10   ar
    29     9     1   ar
    30     9     4   ar
    31    29    24    1
    32    21    22    1
    33    27    30    1
@<TRIPOS>MOLECULE
*****
 30 33 0 0 0
SMALL
GASTEIGER

@<TRIPOS>ATOM
      1 N         139.7181  142.8620  165.0304 N.ar    1  UNL1       -0.1928
      2 N         138.7698  143.9081  164.5241 N.ar    1  UNL1       -0.0582
      3 N         139.5805  145.0088  163.9066 N.ar    1  UNL1       -0.1268
      4 C         141.0298  144.6429  164.0312 C.ar    1  UNL1        0.1403
      5 C         142.2831  145.3465  163.6019 C.ar    1  UNL1        0.0270
      6 C         143.6214  144.7232  163.8672 C.ar    1  UNL1        0.0358
      7 C         143.7065  143.3965  164.5618 C.ar    1  UNL1        0.1303
      8 N         142.4532  142.6929  164.9911 N.ar    1  UNL1       -0.2104
      9 C         141.1149  143.3161  164.7258 C.ar    1  UNL1        0.1859
     10 C         139.4920  140.0069  167.7777 C.ar    1  UNL1        0.1483
     11 C         138.5738  139.0335  167.1000 C.ar    1  UNL1        0.0373
     12 C         138.0370  139.3363  165.7325 C.ar    1  UNL1        0.0047
     13 C         138.4185  140.6124  165.0426 C.ar    1  UNL1        0.0195
     14 C         139.3367  141.5859  165.7203 C.ar    1  UNL1        0.0891
     15 C         139.8735  141.2831  167.0879 C.ar    1  UNL1        0.0564
     16 O         140.0288  139.7043  169.1453 O.3     1  UNL1       -0.4044
     17 F         140.2789  141.8969  171.1775 F       1  UNL1       -0.1328
     18 C         140.1538  140.8006  170.1614 C.3     1  UNL1        0.5753
     19 F         141.6440  140.6294  170.1627 F       1  UNL1       -0.1328
     20 F         138.6637  140.9717  170.1601 F       1  UNL1       -0.1328
     21 N         145.0449  142.7732  164.8271 N.pl3   1  UNL1       -0.3181
     22 H         145.5407  143.0019  165.6463 H       1  UNL1        0.1482
     23 C         145.6279  141.8016  163.8443 C.3     1  UNL1        0.0882
     24 C         144.7772  140.7008  163.2832 C.3     1  UNL1        0.0223
     25 C         144.5158  140.6328  161.8078 C.3     1  UNL1        0.0188
     26 C         143.6651  139.5320  161.2469 C.3     1  UNL1        0.0686
     27 N         143.0759  138.4993  162.1614 N.3     1  UNL1       -0.2975
     28 C         143.3372  138.5674  163.6368 C.3     1  UNL1        0.0686
     29 C         144.1879  139.6681  164.1977 C.3     1  UNL1        0.0188
     30 H         143.4197  137.5934  161.8429 H       1  UNL1        0.1232
@<TRIPOS>BOND
     1    17    18    1
     2    18    19    1
     3    18    20    1
     4    18    16    1
     5    16    10    1
     6    10    11   ar
     7    11    12   ar
     8    12    13   ar
     9    13    14   ar
    10    14     1    1
    11     1     2   ar
    12     2     3   ar
    13     3     4   ar
    14     4     5   ar
    15     5     6   ar
    16     6     7   ar
    17     7    21    1
    18    21    23    1
    19    23    24    1
    20    24    25    1
    21    25    26    1
    22    26    27    1
    23    27    28    1
    24    28    29    1
    25     7     8   ar
    26     8     9   ar
    27    14    15   ar
    28    15    10   ar
    29     9     1   ar
    30     9     4   ar
    31    29    24    1
    32    21    22    1
    33    27    30    1
@<TRIPOS>MOLECULE
*****
 30 33 0 0 0
SMALL
GASTEIGER

@<TRIPOS>ATOM
      1 N         143.4477  142.0902  165.1566 N.ar    1  UNL1       -0.1928
      2 N         144.7194  142.0096  164.3654 N.ar    1  UNL1       -0.0582
      3 N         144.6250  142.9911  163.2350 N.ar    1  UNL1       -0.1268
      4 C         143.2949  143.6783  163.3277 C.ar    1  UNL1        0.1403
      5 C         142.6524  144.7391  162.4840 C.ar    1  UNL1        0.0270
      6 C         141.2821  145.2432  162.8281 C.ar    1  UNL1        0.0358
      7 C         140.5545  144.6864  164.0157 C.ar    1  UNL1        0.1303
      8 N         141.1970  143.6255  164.8593 N.ar    1  UNL1       -0.2104
      9 C         142.5673  143.1215  164.5153 C.ar    1  UNL1        0.1859
     10 C         142.3649  141.1610  168.8599 C.ar    1  UNL1        0.1483
     11 C         142.4487  139.6641  168.8126 C.ar    1  UNL1        0.0373
     12 C         142.8655  138.9759  167.5466 C.ar    1  UNL1        0.0047
     13 C         143.1985  139.7846  166.3280 C.ar    1  UNL1        0.0195
     14 C         143.1147  141.2815  166.3752 C.ar    1  UNL1        0.0891
     15 C         142.6979  141.9697  167.6413 C.ar    1  UNL1        0.0564
     16 O         141.9481  141.8492  170.1258 O.3     1  UNL1       -0.4044
     17 F         140.7043  144.5768  170.0105 F       1  UNL1       -0.1328
     18 C         141.3262  143.2130  170.0682 C.3     1  UNL1        0.5753
     19 F         140.0337  142.6043  169.6111 F       1  UNL1       -0.1328
     20 F         142.6186  143.8217  170.5253 F       1  UNL1       -0.1328
     21 N         139.1842  145.1904  164.3597 N.pl3   1  UNL1       -0.3181
     22 H         139.0065  146.1585  164.3798 H       1  UNL1        0.1482
     23 C         138.0846  144.2195  164.6729 C.3     1  UNL1        0.0882
     24 C         138.0302  142.8955  163.9698 C.3     1  UNL1        0.0223
     25 C         138.1641  141.6238  164.7539 C.3     1  UNL1        0.0188
     26 C         138.1097  140.3000  164.0508 C.3     1  UNL1        0.0686
     27 N         137.9215  140.2478  162.5635 N.3     1  UNL1       -0.2975
     28 C         137.7876  141.5195  161.7794 C.3     1  UNL1        0.0686
     29 C         137.8420  142.8434  162.4826 C.3     1  UNL1        0.0188
     30 H         137.0743  139.7061  162.3928 H       1  UNL1        0.1232
@<TRIPOS>BOND
     1    17    18    1
     2    18    19    1
     3    18    20    1
     4    18    16    1
     5    16    10    1
     6    10    11   ar
     7    11    12   ar
     8    12    13   ar
     9    13    14   ar
    10    14     1    1
    11     1     2   ar
    12     2     3   ar
    13     3     4   ar
    14     4     5   ar
    15     5     6   ar
    16     6     7   ar
    17     7    21    1
    18    21    23    1
    19    23    24    1
    20    24    25    1
    21    25    26    1
    22    26    27    1
    23    27    28    1
    24    28    29    1
    25     7     8   ar
    26     8     9   ar
    27    14    15   ar
    28    15    10   ar
    29     9     1   ar
    30     9     4   ar
    31    29    24    1
    32    21    22    1
    33    27    30    1
@<TRIPOS>MOLECULE
*****
 30 33 0 0 0
SMALL
GASTEIGER

@<TRIPOS>ATOM
      1 N         142.2394  143.6519  163.1483 N.ar    1  UNL1       -0.1928
      2 N         143.0442  144.6351  162.3510 N.ar    1  UNL1       -0.0582
      3 N         144.4522  144.1244  162.2705 N.ar    1  UNL1       -0.1268
      4 C         144.5177  142.8255  163.0180 C.ar    1  UNL1        0.1403
      5 C         145.6459  141.8711  163.2748 C.ar    1  UNL1        0.0270
      6 C         145.4066  140.6246  164.0741 C.ar    1  UNL1        0.0358
      7 C         144.0389  140.3326  164.6166 C.ar    1  UNL1        0.1303
      8 N         142.9107  141.2871  164.3599 N.ar    1  UNL1       -0.2104
      9 C         143.1501  142.5336  163.5606 C.ar    1  UNL1        0.1859
     10 C         138.3142  143.0770  163.0359 C.ar    1  UNL1        0.1483
     11 C         137.8615  143.9967  164.1310 C.ar    1  UNL1        0.0373
     12 C         138.8681  144.8015  164.8985 C.ar    1  UNL1        0.0047
     13 C         140.3274  144.6865  164.5709 C.ar    1  UNL1        0.0195
     14 C         140.7801  143.7669  163.4759 C.ar    1  UNL1        0.0891
     15 C         139.7735  142.9621  162.7083 C.ar    1  UNL1        0.0564
     16 O         137.3076  142.2722  162.2684 O.3     1  UNL1       -0.4044
     17 F         138.0590  139.5826  161.1721 F       1  UNL1       -0.1328
     18 C         137.6833  140.9274  161.7203 C.3     1  UNL1        0.5753
     19 F         137.9568  141.5490  160.3827 F       1  UNL1       -0.1328
     20 F         137.4099  140.3059  163.0577 F       1  UNL1       -0.1328
     21 N         143.7996  139.0860  165.4160 N.pl3   1  UNL1       -0.3181
     22 H         144.5621  138.5448  165.7240 H       1  UNL1        0.1482
     23 C         142.3985  138.6641  165.7460 C.3     1  UNL1        0.0882
     24 C         141.4711  138.2223  164.6528 C.3     1  UNL1        0.0223
     25 C         140.0077  138.0515  164.9343 C.3     1  UNL1        0.0188
     26 C         139.0804  137.6097  163.8412 C.3     1  UNL1        0.0686
     27 N         139.6165  137.3388  162.4667 N.3     1  UNL1       -0.2975
     28 C         141.0798  137.5097  162.1853 C.3     1  UNL1        0.0686
     29 C         142.0072  137.9514  163.2784 C.3     1  UNL1        0.0188
     30 H         139.1194  137.9606  161.8289 H       1  UNL1        0.1232
@<TRIPOS>BOND
     1    17    18    1
     2    18    19    1
     3    18    20    1
     4    18    16    1
     5    16    10    1
     6    10    11   ar
     7    11    12   ar
     8    12    13   ar
     9    13    14   ar
    10    14     1    1
    11     1     2   ar
    12     2     3   ar
    13     3     4   ar
    14     4     5   ar
    15     5     6   ar
    16     6     7   ar
    17     7    21    1
    18    21    23    1
    19    23    24    1
    20    24    25    1
    21    25    26    1
    22    26    27    1
    23    27    28    1
    24    28    29    1
    25     7     8   ar
    26     8     9   ar
    27    14    15   ar
    28    15    10   ar
    29     9     1   ar
    30     9     4   ar
    31    29    24    1
    32    21    22    1
    33    27    30    1
@<TRIPOS>MOLECULE
*****
 30 33 0 0 0
SMALL
GASTEIGER

@<TRIPOS>ATOM
      1 N         138.5634  141.8411  163.4235 N.ar    1  UNL1       -0.1928
      2 N         137.4033  142.3686  162.6324 N.ar    1  UNL1       -0.0582
      3 N         137.7825  143.7176  162.0972 N.ar    1  UNL1       -0.1268
      4 C         139.1769  144.0238  162.5576 C.ar    1  UNL1        0.1403
      5 C         140.0694  145.2088  162.3363 C.ar    1  UNL1        0.0270
      6 C         141.4446  145.2341  162.9347 C.ar    1  UNL1        0.0358
      7 C         141.9273  144.0743  163.7544 C.ar    1  UNL1        0.1303
      8 N         141.0347  142.8893  163.9757 N.ar    1  UNL1       -0.2104
      9 C         139.6595  142.8640  163.3773 C.ar    1  UNL1        0.1859
     10 C         138.5911  139.1553  166.3453 C.ar    1  UNL1        0.1483
     11 C         138.7268  137.8842  165.5606 C.ar    1  UNL1        0.0373
     12 C         138.8080  137.9320  164.0635 C.ar    1  UNL1        0.0047
     13 C         138.7535  139.2510  163.3512 C.ar    1  UNL1        0.0195
     14 C         138.6179  140.5221  164.1358 C.ar    1  UNL1        0.0891
     15 C         138.5367  140.4743  165.6329 C.ar    1  UNL1        0.0564
     16 O         138.5099  139.1076  167.8423 O.3     1  UNL1       -0.4044
     17 F         140.3308  140.8227  169.4985 F       1  UNL1       -0.1328
     18 C         139.4203  139.9652  168.6704 C.3     1  UNL1        0.5753
     19 F         140.5512  139.6736  167.7290 F       1  UNL1       -0.1328
     20 F         138.2895  140.2567  169.6117 F       1  UNL1       -0.1328
     21 N         143.3026  144.0996  164.3528 N.pl3   1  UNL1       -0.3181
     22 H         143.4443  144.4922  165.2444 H       1  UNL1        0.1482
     23 C         144.4618  143.5266  163.5927 C.3     1  UNL1        0.0882
     24 C         144.5065  142.0587  163.2871 C.3     1  UNL1        0.0223
     25 C         144.2065  141.5718  161.9005 C.3     1  UNL1        0.0188
     26 C         144.2512  140.1040  161.5950 C.3     1  UNL1        0.0686
     27 N         144.5958  139.1230  162.6761 N.3     1  UNL1       -0.2975
     28 C         144.8958  139.6099  164.0628 C.3     1  UNL1        0.0686
     29 C         144.8511  141.0777  164.3683 C.3     1  UNL1        0.0188
     30 H         145.4198  138.6124  162.3587 H       1  UNL1        0.1232
@<TRIPOS>BOND
     1    17    18    1
     2    18    19    1
     3    18    20    1
     4    18    16    1
     5    16    10    1
     6    10    11   ar
     7    11    12   ar
     8    12    13   ar
     9    13    14   ar
    10    14     1    1
    11     1     2   ar
    12     2     3   ar
    13     3     4   ar
    14     4     5   ar
    15     5     6   ar
    16     6     7   ar
    17     7    21    1
    18    21    23    1
    19    23    24    1
    20    24    25    1
    21    25    26    1
    22    26    27    1
    23    27    28    1
    24    28    29    1
    25     7     8   ar
    26     8     9   ar
    27    14    15   ar
    28    15    10   ar
    29     9     1   ar
    30     9     4   ar
    31    29    24    1
    32    21    22    1
    33    27    30    1
