@<TRIPOS>MOLECULE
*****
 35 37 0 0 0
SMALL
GASTEIGER

@<TRIPOS>ATOM
      1 C         140.3095  141.9790  167.5269 C.3     1  UNL1        0.0997
      2 C         140.3213  142.5928  166.1583 C.3     1  UNL1        0.0105
      3 C         141.6259  142.8701  165.4719 C.3     1  UNL1        0.0022
      4 C         141.6376  143.4839  164.1033 C.3     1  UNL1        0.0198
      5 C         140.3448  143.8204  163.4211 C.3     1  UNL1        0.0757
      6 C         139.0402  143.5431  164.1075 C.3     1  UNL1        0.0198
      7 C         139.0285  142.9293  165.4761 C.3     1  UNL1        0.0022
      8 N         140.3566  144.4343  162.0525 N.am    1  UNL1       -0.2760
      9 C         140.0139  145.8841  161.8777 C.3     1  UNL1        0.1151
     10 C         140.7111  143.5982  160.8586 C.2     1  UNL1        0.2491
     11 O         141.0538  142.1483  161.0333 O.2     1  UNL1       -0.2699
     12 C         140.7229  144.2120  159.4900 C.ar    1  UNL1        0.0558
     13 C         141.8066  145.1771  159.1101 C.ar    1  UNL1        0.0047
     14 C         141.8184  145.7909  157.7415 C.ar    1  UNL1        0.0025
     15 C         140.7466  145.4396  156.7527 C.ar    1  UNL1        0.0296
     16 C         139.6629  144.4745  157.1325 C.ar    1  UNL1        0.1403
     17 F         138.5911  144.1231  156.1437 F       1  UNL1       -0.2042
     18 C         139.6511  143.8606  158.5011 C.ar    1  UNL1        0.0341
     19 C         142.6771  143.2008  170.4683 C.3     1  UNL1        0.1149
     20 N         142.1622  142.4235  169.2933 N.am    1  UNL1       -0.2760
     21 C         142.9850  141.3134  168.7096 C.3     1  UNL1        0.1149
     22 C         140.8244  142.7562  168.7019 C.2     1  UNL1        0.2271
     23 O         140.0016  143.8664  169.2856 O.2     1  UNL1       -0.2748
     24 C         139.7828  140.5879  167.7205 C.3     1  UNL1        0.1371
     25 N         139.5276  140.0683  169.1044 N.3     1  UNL1       -0.3146
     26 H         139.1743  139.1131  169.0491 H       1  UNL1        0.1192
     27 H         138.8378  140.6597  169.5677 H       1  UNL1        0.1192
     28 C         139.5113  139.7164  166.5303 C.2     1  UNL1        0.2402
     29 O         138.0983  139.4457  166.1056 O.2     1  UNL1       -0.2734
     30 N         140.6527  139.1155  165.7646 N.am    1  UNL1       -0.2756
     31 C         140.5367  138.2288  164.5603 C.3     1  UNL1        0.0964
     32 C         141.9228  137.8611  164.1202 C.3     1  UNL1        0.0585
     33 C         142.8954  138.5206  165.0526 C.3     1  UNL1        0.1824
     34 F         144.3904  138.4221  164.9813 F       1  UNL1       -0.2354
     35 C         142.1104  139.2958  166.0689 C.3     1  UNL1        0.1286
@<TRIPOS>BOND
     1    19    20    1
     2    20    21    1
     3    20    22   am
     4    22    23    2
     5    22     1    1
     6     1     2    1
     7     2     3    1
     8     3     4    1
     9     4     5    1
    10     5     8    1
    11     8     9    1
    12     8    10   am
    13    10    11    2
    14    10    12    1
    15    12    13   ar
    16    13    14   ar
    17    14    15   ar
    18    15    16   ar
    19    16    17    1
    20    16    18   ar
    21     5     6    1
    22     6     7    1
    23     1    24    1
    24    24    25    1
    25    24    28    1
    26    28    29    2
    27    28    30   am
    28    30    31    1
    29    31    32    1
    30    32    33    1
    31    33    34    1
    32    33    35    1
    33     7     2    1
    34    35    30    1
    35    18    12   ar
    36    25    26    1
    37    25    27    1
@<TRIPOS>MOLECULE
*****
 35 37 0 0 0
SMALL
GASTEIGER

@<TRIPOS>ATOM
      1 C         140.9592  137.4777  156.4467 C.3     1  UNL1        0.0997
      2 C         141.1983  137.8964  157.8671 C.3     1  UNL1        0.0105
      3 C         142.5487  137.7001  158.4897 C.3     1  UNL1        0.0022
      4 C         142.7878  138.1189  159.9101 C.3     1  UNL1        0.0198
      5 C         141.6763  138.7339  160.7078 C.3     1  UNL1        0.0757
      6 C         140.3259  138.9303  160.0852 C.3     1  UNL1        0.0198
      7 C         140.0868  138.5115  158.6649 C.3     1  UNL1        0.0022
      8 N         141.9154  139.1527  162.1283 N.am    1  UNL1       -0.2760
      9 C         142.5534  140.4780  162.4222 C.3     1  UNL1        0.1151
     10 C         141.5165  138.2460  163.2547 C.2     1  UNL1        0.2491
     11 O         140.8786  136.9206  162.9607 O.2     1  UNL1       -0.2699
     12 C         141.7556  138.6647  164.6751 C.ar    1  UNL1        0.0558
     13 C         143.0590  138.3409  165.3432 C.ar    1  UNL1        0.0047
     14 C         143.2981  138.7596  166.7636 C.ar    1  UNL1        0.0025
     15 C         142.2338  139.5021  167.5159 C.ar    1  UNL1        0.0296
     16 C         140.9304  139.8259  166.8478 C.ar    1  UNL1        0.1403
     17 F         139.8661  140.5684  167.6002 F       1  UNL1       -0.2042
     18 C         140.6913  139.4072  165.4274 C.ar    1  UNL1        0.0341
     19 C         138.3614  139.5697  154.2961 C.3     1  UNL1        0.1149
     20 N         139.6284  139.1702  154.9926 N.am    1  UNL1       -0.2760
     21 C         140.8317  140.0639  154.9316 C.3     1  UNL1        0.1149
     22 C         139.6922  137.8772  155.7502 C.2     1  UNL1        0.2271
     23 O         138.4889  136.9835  155.8112 O.2     1  UNL1       -0.2748
     24 C         141.9871  136.6595  155.7228 C.3     1  UNL1        0.1371
     25 N         143.2463  137.3058  155.2262 N.3     1  UNL1       -0.3146
     26 H         143.8266  136.6074  154.7616 H       1  UNL1        0.1192
     27 H         143.7580  137.7034  156.0139 H       1  UNL1        0.1192
     28 C         141.7557  135.1950  155.4956 C.2     1  UNL1        0.2402
     29 O         140.6870  134.7431  154.5451 O.2     1  UNL1       -0.2734
     30 N         142.5932  134.1823  156.2190 N.am    1  UNL1       -0.2756
     31 C         142.4781  132.6919  156.0940 C.3     1  UNL1        0.0964
     32 C         143.5066  132.0707  156.9921 C.3     1  UNL1        0.0585
     33 C         144.2571  133.1772  157.6722 C.3     1  UNL1        0.1824
     34 F         145.3757  133.0083  158.6570 F       1  UNL1       -0.2354
     35 C         143.6926  134.4822  157.1943 C.3     1  UNL1        0.1286
@<TRIPOS>BOND
     1    19    20    1
     2    20    21    1
     3    20    22   am
     4    22    23    2
     5    22     1    1
     6     1     2    1
     7     2     3    1
     8     3     4    1
     9     4     5    1
    10     5     8    1
    11     8     9    1
    12     8    10   am
    13    10    11    2
    14    10    12    1
    15    12    13   ar
    16    13    14   ar
    17    14    15   ar
    18    15    16   ar
    19    16    17    1
    20    16    18   ar
    21     5     6    1
    22     6     7    1
    23     1    24    1
    24    24    25    1
    25    24    28    1
    26    28    29    2
    27    28    30   am
    28    30    31    1
    29    31    32    1
    30    32    33    1
    31    33    34    1
    32    33    35    1
    33     7     2    1
    34    35    30    1
    35    18    12   ar
    36    25    26    1
    37    25    27    1
@<TRIPOS>MOLECULE
*****
 35 37 0 0 0
SMALL
GASTEIGER

@<TRIPOS>ATOM
      1 C         142.8161  141.4685  159.2697 C.3     1  UNL1        0.0997
      2 C         142.5412  141.0714  160.6899 C.3     1  UNL1        0.0105
      3 C         141.1312  140.8331  161.1425 C.3     1  UNL1        0.0022
      4 C         140.8564  140.4361  162.5626 C.3     1  UNL1        0.0198
      5 C         141.9916  140.2774  163.5301 C.3     1  UNL1        0.0757
      6 C         143.4017  140.5157  163.0775 C.3     1  UNL1        0.0198
      7 C         143.6765  140.9127  161.6574 C.3     1  UNL1        0.0022
      8 N         141.7167  139.8803  164.9503 N.am    1  UNL1       -0.2760
      9 C         141.4592  138.4424  165.2906 C.3     1  UNL1        0.1151
     10 C         141.6994  140.9213  166.0301 C.2     1  UNL1        0.2491
     11 O         141.9569  142.3594  165.6898 O.2     1  UNL1       -0.2699
     12 C         141.4245  140.5244  167.4503 C.ar    1  UNL1        0.0558
     13 C         142.5351  139.9980  168.3103 C.ar    1  UNL1        0.0047
     14 C         142.2603  139.6010  169.7304 C.ar    1  UNL1        0.0025
     15 C         140.8748  139.7304  170.2906 C.ar    1  UNL1        0.0296
     16 C         139.7643  140.2567  169.4307 C.ar    1  UNL1        0.1403
     17 F         138.3788  140.3861  169.9909 F       1  UNL1       -0.2042
     18 C         140.0391  140.6537  168.0105 C.ar    1  UNL1        0.0341
     19 C         142.1620  138.8405  156.3687 C.3     1  UNL1        0.1149
     20 N         141.9183  139.8940  157.4083 N.am    1  UNL1       -0.2760
     21 C         140.5330  140.4267  157.6258 C.3     1  UNL1        0.1149
     22 C         143.0598  140.4149  158.2302 C.2     1  UNL1        0.2271
     23 O         144.4451  139.8822  158.0126 O.2     1  UNL1       -0.2748
     24 C         142.8473  142.9190  158.8891 C.3     1  UNL1        0.1371
     25 N         144.1061  143.5239  158.3416 N.3     1  UNL1       -0.3146
     26 H         143.9486  144.5110  158.1384 H       1  UNL1        0.1192
     27 H         144.3719  143.0386  157.4848 H       1  UNL1        0.1192
     28 C         141.6197  143.7647  159.0559 C.2     1  UNL1        0.2402
     29 O         140.6574  143.9230  157.9162 O.2     1  UNL1       -0.2734
     30 N         141.3545  144.4523  160.3624 N.am    1  UNL1       -0.2756
     31 C         140.1757  145.3253  160.6759 C.3     1  UNL1        0.0964
     32 C         140.3141  145.8001  162.0921 C.3     1  UNL1        0.0585
     33 C         141.5785  145.2205  162.6538 C.3     1  UNL1        0.1824
     34 F         142.1070  145.4360  164.0408 F       1  UNL1       -0.2354
     35 C         142.2215  144.3875  161.5848 C.3     1  UNL1        0.1286
@<TRIPOS>BOND
     1    19    20    1
     2    20    21    1
     3    20    22   am
     4    22    23    2
     5    22     1    1
     6     1     2    1
     7     2     3    1
     8     3     4    1
     9     4     5    1
    10     5     8    1
    11     8     9    1
    12     8    10   am
    13    10    11    2
    14    10    12    1
    15    12    13   ar
    16    13    14   ar
    17    14    15   ar
    18    15    16   ar
    19    16    17    1
    20    16    18   ar
    21     5     6    1
    22     6     7    1
    23     1    24    1
    24    24    25    1
    25    24    28    1
    26    28    29    2
    27    28    30   am
    28    30    31    1
    29    31    32    1
    30    32    33    1
    31    33    34    1
    32    33    35    1
    33     7     2    1
    34    35    30    1
    35    18    12   ar
    36    25    26    1
    37    25    27    1
@<TRIPOS>MOLECULE
*****
 35 37 0 0 0
SMALL
GASTEIGER

@<TRIPOS>ATOM
      1 C         141.2383  139.2524  158.9863 C.3     1  UNL1        0.0997
      2 C         140.8727  139.6318  160.3908 C.3     1  UNL1        0.0105
      3 C         141.0344  141.0503  160.8507 C.3     1  UNL1        0.0022
      4 C         140.6688  141.4296  162.2551 C.3     1  UNL1        0.0198
      5 C         140.1415  140.3904  163.1996 C.3     1  UNL1        0.0757
      6 C         139.9798  138.9719  162.7396 C.3     1  UNL1        0.0198
      7 C         140.3454  138.5925  161.3352 C.3     1  UNL1        0.0022
      8 N         139.7759  140.7697  164.6041 N.am    1  UNL1       -0.2760
      9 C         138.4202  141.3402  164.8981 C.3     1  UNL1        0.1151
     10 C         140.7661  140.5787  165.7144 C.2     1  UNL1        0.2491
     11 O         142.1219  140.0082  165.4203 O.2     1  UNL1       -0.2699
     12 C         140.4006  140.9580  167.1189 C.ar    1  UNL1        0.0558
     13 C         139.6937  139.9729  168.0020 C.ar    1  UNL1        0.0047
     14 C         139.3282  140.3522  169.4064 C.ar    1  UNL1        0.0025
     15 C         139.6695  141.7167  169.9278 C.ar    1  UNL1        0.0296
     16 C         140.3763  142.7018  169.0447 C.ar    1  UNL1        0.1403
     17 F         140.7176  144.0662  169.5660 F       1  UNL1       -0.2042
     18 C         140.7419  142.3225  167.6402 C.ar    1  UNL1        0.0341
     19 C         138.7400  140.2608  156.0722 C.3     1  UNL1        0.1149
     20 N         139.8052  140.3600  157.1237 N.am    1  UNL1       -0.2760
     21 C         140.5024  141.6663  157.3641 C.3     1  UNL1        0.1149
     22 C         140.1732  139.1531  157.9348 C.2     1  UNL1        0.2271
     23 O         139.4760  137.8469  157.6944 O.2     1  UNL1       -0.2748
     24 C         142.6690  138.9723  158.6333 C.3     1  UNL1        0.1371
     25 N         143.7160  138.9504  159.7073 N.3     1  UNL1       -0.3146
     26 H         144.6249  138.7461  159.2919 H       1  UNL1        0.1192
     27 H         143.4856  138.2303  160.3921 H       1  UNL1        0.1192
     28 C         143.0528  138.7141  157.2064 C.2     1  UNL1        0.2402
     29 O         143.3693  139.8628  156.2953 O.2     1  UNL1       -0.2734
     30 N         143.1200  137.3071  156.6907 N.am    1  UNL1       -0.2756
     31 C         143.4867  136.8962  155.2954 C.3     1  UNL1        0.0964
     32 C         143.4257  135.3992  155.2220 C.3     1  UNL1        0.0585
     33 C         143.0213  134.8850  156.5719 C.3     1  UNL1        0.1824
     34 F         142.8381  133.4446  156.9480 F       1  UNL1       -0.2354
     35 C         142.8324  136.0642  157.4795 C.3     1  UNL1        0.1286
@<TRIPOS>BOND
     1    19    20    1
     2    20    21    1
     3    20    22   am
     4    22    23    2
     5    22     1    1
     6     1     2    1
     7     2     3    1
     8     3     4    1
     9     4     5    1
    10     5     8    1
    11     8     9    1
    12     8    10   am
    13    10    11    2
    14    10    12    1
    15    12    13   ar
    16    13    14   ar
    17    14    15   ar
    18    15    16   ar
    19    16    17    1
    20    16    18   ar
    21     5     6    1
    22     6     7    1
    23     1    24    1
    24    24    25    1
    25    24    28    1
    26    28    29    2
    27    28    30   am
    28    30    31    1
    29    31    32    1
    30    32    33    1
    31    33    34    1
    32    33    35    1
    33     7     2    1
    34    35    30    1
    35    18    12   ar
    36    25    26    1
    37    25    27    1
@<TRIPOS>MOLECULE
*****
 35 37 0 0 0
SMALL
GASTEIGER

@<TRIPOS>ATOM
      1 C         142.4860  141.1709  166.9285 C.3     1  UNL1        0.0997
      2 C         142.1556  141.8825  165.6500 C.3     1  UNL1        0.0105
      3 C         140.7505  141.8680  165.1251 C.3     1  UNL1        0.0022
      4 C         140.4202  142.5796  163.8467 C.3     1  UNL1        0.0198
      5 C         141.4949  143.3058  163.0932 C.3     1  UNL1        0.0757
      6 C         142.8999  143.3203  163.6181 C.3     1  UNL1        0.0198
      7 C         143.2303  142.6087  164.8965 C.3     1  UNL1        0.0022
      8 N         141.1644  144.0174  161.8147 N.am    1  UNL1       -0.2760
      9 C         140.5506  145.3854  161.8548 C.3     1  UNL1        0.1151
     10 C         141.4479  143.3610  160.4961 C.2     1  UNL1        0.2491
     11 O         142.0617  141.9928  160.4560 O.2     1  UNL1       -0.2699
     12 C         141.1175  144.0725  159.2176 C.ar    1  UNL1        0.0558
     13 C         142.0102  145.1693  158.7174 C.ar    1  UNL1        0.0047
     14 C         141.6798  145.8809  157.4389 C.ar    1  UNL1        0.0025
     15 C         140.4567  145.4957  156.6607 C.ar    1  UNL1        0.0296
     16 C         139.5640  144.3990  157.1608 C.ar    1  UNL1        0.1403
     17 F         138.3409  144.0138  156.3826 F       1  UNL1       -0.2042
     18 C         139.8944  143.6874  158.4394 C.ar    1  UNL1        0.0341
     19 C         141.0399  142.5215  170.3686 C.3     1  UNL1        0.1149
     20 N         141.1376  141.7958  169.0595 N.am    1  UNL1       -0.2760
     21 C         139.9845  140.9693  168.5723 C.3     1  UNL1        0.1149
     22 C         142.3883  141.8966  168.2376 C.2     1  UNL1        0.2271
     23 O         143.5414  142.7231  168.7249 O.2     1  UNL1       -0.2748
     24 C         142.9141  139.7336  166.8978 C.3     1  UNL1        0.1371
     25 N         143.0620  138.9676  168.1790 N.3     1  UNL1       -0.3146
     26 H         143.3577  138.0135  167.9724 H       1  UNL1        0.1192
     27 H         142.1674  138.9478  168.6686 H       1  UNL1        0.1192
     28 C         143.1942  139.0623  165.5860 C.2     1  UNL1        0.2402
     29 O         144.5949  139.0161  165.0512 O.2     1  UNL1       -0.2734
     30 N         142.0737  138.4373  164.8089 N.am    1  UNL1       -0.2756
     31 C         142.2003  137.7347  163.4897 C.3     1  UNL1        0.0964
     32 C         140.8347  137.2682  163.0801 C.3     1  UNL1        0.0585
     33 C         139.8642  137.6825  164.1463 C.3     1  UNL1        0.1824
     34 F         138.3874  137.4203  164.1443 F       1  UNL1       -0.2354
     35 C         140.6300  138.4050  165.2147 C.3     1  UNL1        0.1286
@<TRIPOS>BOND
     1    19    20    1
     2    20    21    1
     3    20    22   am
     4    22    23    2
     5    22     1    1
     6     1     2    1
     7     2     3    1
     8     3     4    1
     9     4     5    1
    10     5     8    1
    11     8     9    1
    12     8    10   am
    13    10    11    2
    14    10    12    1
    15    12    13   ar
    16    13    14   ar
    17    14    15   ar
    18    15    16   ar
    19    16    17    1
    20    16    18   ar
    21     5     6    1
    22     6     7    1
    23     1    24    1
    24    24    25    1
    25    24    28    1
    26    28    29    2
    27    28    30   am
    28    30    31    1
    29    31    32    1
    30    32    33    1
    31    33    34    1
    32    33    35    1
    33     7     2    1
    34    35    30    1
    35    18    12   ar
    36    25    26    1
    37    25    27    1
@<TRIPOS>MOLECULE
*****
 35 37 0 0 0
SMALL
GASTEIGER

@<TRIPOS>ATOM
      1 C         142.4019  143.3067  159.1801 C.3     1  UNL1        0.0997
      2 C         141.9001  143.1796  160.5880 C.3     1  UNL1        0.0105
      3 C         142.5321  143.9839  161.6850 C.3     1  UNL1        0.0022
      4 C         142.0302  143.8568  163.0928 C.3     1  UNL1        0.0198
      5 C         140.8963  142.9254  163.4035 C.3     1  UNL1        0.0757
      6 C         140.2642  142.1211  162.3065 C.3     1  UNL1        0.0198
      7 C         140.7661  142.2482  160.8987 C.3     1  UNL1        0.0022
      8 N         140.3944  142.7983  164.8114 N.am    1  UNL1       -0.2760
      9 C         139.2621  143.6607  165.2847 C.3     1  UNL1        0.1151
     10 C         141.0249  141.8088  165.7459 C.2     1  UNL1        0.2491
     11 O         142.1573  140.9463  165.2726 O.2     1  UNL1       -0.2699
     12 C         140.5231  141.6816  167.1537 C.ar    1  UNL1        0.0558
     13 C         139.8577  140.4139  167.6012 C.ar    1  UNL1        0.0047
     14 C         139.3558  140.2868  169.0090 C.ar    1  UNL1        0.0025
     15 C         139.5194  141.4274  169.9694 C.ar    1  UNL1        0.0296
     16 C         140.1847  142.6950  169.5220 C.ar    1  UNL1        0.1403
     17 F         140.3483  143.8356  170.4824 F       1  UNL1       -0.2042
     18 C         140.6866  142.8222  168.1141 C.ar    1  UNL1        0.0341
     19 C         140.0939  145.0746  156.4788 C.3     1  UNL1        0.1149
     20 N         140.6651  144.0263  157.3869 N.am    1  UNL1       -0.2760
     21 C         140.0708  142.6492  157.4099 C.3     1  UNL1        0.1149
     22 C         141.8307  144.3550  158.2720 C.2     1  UNL1        0.2271
     23 O         142.4250  145.7321  158.2490 O.2     1  UNL1       -0.2748
     24 C         143.4750  142.3854  158.6804 C.3     1  UNL1        0.1371
     25 N         144.7733  142.9472  158.1814 N.3     1  UNL1       -0.3146
     26 H         145.3815  142.1846  157.8831 H       1  UNL1        0.1192
     27 H         145.2271  143.4711  158.9298 H       1  UNL1        0.1192
     28 C         143.2499  140.9024  158.6796 C.2     1  UNL1        0.2402
     29 O         142.6991  140.2281  157.4583 O.2     1  UNL1       -0.2734
     30 N         143.5757  140.0938  159.9003 N.am    1  UNL1       -0.2756
     31 C         143.4047  138.6108  160.0469 C.3     1  UNL1        0.0964
     32 C         143.8529  138.2265  161.4259 C.3     1  UNL1        0.0585
     33 C         144.3009  139.4722  162.1315 C.3     1  UNL1        0.1824
     34 F         144.8277  139.5501  163.5337 F       1  UNL1       -0.2354
     35 C         144.1296  140.6261  161.1887 C.3     1  UNL1        0.1286
@<TRIPOS>BOND
     1    19    20    1
     2    20    21    1
     3    20    22   am
     4    22    23    2
     5    22     1    1
     6     1     2    1
     7     2     3    1
     8     3     4    1
     9     4     5    1
    10     5     8    1
    11     8     9    1
    12     8    10   am
    13    10    11    2
    14    10    12    1
    15    12    13   ar
    16    13    14   ar
    17    14    15   ar
    18    15    16   ar
    19    16    17    1
    20    16    18   ar
    21     5     6    1
    22     6     7    1
    23     1    24    1
    24    24    25    1
    25    24    28    1
    26    28    29    2
    27    28    30   am
    28    30    31    1
    29    31    32    1
    30    32    33    1
    31    33    34    1
    32    33    35    1
    33     7     2    1
    34    35    30    1
    35    18    12   ar
    36    25    26    1
    37    25    27    1
@<TRIPOS>MOLECULE
*****
 35 37 0 0 0
SMALL
GASTEIGER

@<TRIPOS>ATOM
      1 C         142.8530  137.1596  156.9547 C.3     1  UNL1        0.0997
      2 C         142.3200  137.6493  158.2686 C.3     1  UNL1        0.0105
      3 C         143.1572  137.5332  159.5078 C.3     1  UNL1        0.0022
      4 C         142.6242  138.0229  160.8216 C.3     1  UNL1        0.0198
      5 C         141.2540  138.6286  160.8962 C.3     1  UNL1        0.0757
      6 C         140.4168  138.7447  159.6571 C.3     1  UNL1        0.0198
      7 C         140.9498  138.2551  158.3433 C.3     1  UNL1        0.0022
      8 N         140.7210  139.1183  162.2101 N.am    1  UNL1       -0.2760
      9 C         140.3000  140.5499  162.3620 C.3     1  UNL1        0.1151
     10 C         140.6090  138.1763  163.3720 C.2     1  UNL1        0.2491
     11 O         141.0300  136.7445  163.2200 O.2     1  UNL1       -0.2699
     12 C         140.0760  138.6659  164.6858 C.ar    1  UNL1        0.0558
     13 C         138.6272  138.4762  165.0251 C.ar    1  UNL1        0.0047
     14 C         138.0943  138.9658  166.3389 C.ar    1  UNL1        0.0025
     15 C         139.0101  139.6451  167.3135 C.ar    1  UNL1        0.0296
     16 C         140.4588  139.8348  166.9743 C.ar    1  UNL1        0.1403
     17 F         141.3746  140.5141  167.9490 F       1  UNL1       -0.2042
     18 C         140.9918  139.3452  165.6604 C.ar    1  UNL1        0.0341
     19 C         141.4073  133.8413  155.3273 C.3     1  UNL1        0.1149
     20 N         141.5580  135.2846  155.7068 N.am    1  UNL1       -0.2760
     21 C         140.5644  136.2964  155.2176 C.3     1  UNL1        0.1149
     22 C         142.7023  135.7163  156.5753 C.2     1  UNL1        0.2271
     23 O         143.6959  134.7045  157.0644 O.2     1  UNL1       -0.2748
     24 C         143.5366  138.1133  156.0204 C.3     1  UNL1        0.1371
     25 N         144.8501  137.7419  155.3983 N.3     1  UNL1       -0.3146
     26 H         145.1678  138.5012  154.7959 H       1  UNL1        0.1192
     27 H         144.7360  136.8932  154.8442 H       1  UNL1        0.1192
     28 C         142.9069  139.4384  155.7080 C.2     1  UNL1        0.2402
     29 O         141.8511  139.5355  154.6470 O.2     1  UNL1       -0.2734
     30 N         143.3329  140.6664  156.4568 N.am    1  UNL1       -0.2756
     31 C         142.7960  142.0524  156.2553 C.3     1  UNL1        0.0964
     32 C         143.5019  142.9666  157.2124 C.3     1  UNL1        0.0585
     33 C         144.4751  142.1455  158.0054 C.3     1  UNL1        0.1824
     34 F         145.3917  142.6563  159.0771 F       1  UNL1       -0.2354
     35 C         144.3706  140.7239  157.5383 C.3     1  UNL1        0.1286
@<TRIPOS>BOND
     1    19    20    1
     2    20    21    1
     3    20    22   am
     4    22    23    2
     5    22     1    1
     6     1     2    1
     7     2     3    1
     8     3     4    1
     9     4     5    1
    10     5     8    1
    11     8     9    1
    12     8    10   am
    13    10    11    2
    14    10    12    1
    15    12    13   ar
    16    13    14   ar
    17    14    15   ar
    18    15    16   ar
    19    16    17    1
    20    16    18   ar
    21     5     6    1
    22     6     7    1
    23     1    24    1
    24    24    25    1
    25    24    28    1
    26    28    29    2
    27    28    30   am
    28    30    31    1
    29    31    32    1
    30    32    33    1
    31    33    34    1
    32    33    35    1
    33     7     2    1
    34    35    30    1
    35    18    12   ar
    36    25    26    1
    37    25    27    1
@<TRIPOS>MOLECULE
*****
 35 37 0 0 0
SMALL
GASTEIGER

@<TRIPOS>ATOM
      1 C         142.0359  142.1754  161.0600 C.3     1  UNL1        0.0997
      2 C         141.7955  141.1094  160.0324 C.3     1  UNL1        0.0105
      3 C         141.9501  141.4249  158.5742 C.3     1  UNL1        0.0022
      4 C         141.7097  140.3589  157.5466 C.3     1  UNL1        0.0198
      5 C         141.3146  138.9775  157.9773 C.3     1  UNL1        0.0757
      6 C         141.1600  138.6620  159.4355 C.3     1  UNL1        0.0198
      7 C         141.4004  139.7279  160.4631 C.3     1  UNL1        0.0022
      8 N         141.0742  137.9115  156.9497 N.am    1  UNL1       -0.2760
      9 C         139.6741  137.5825  156.5237 C.3     1  UNL1        0.1151
     10 C         142.2339  137.1746  156.3480 C.2     1  UNL1        0.2491
     11 O         143.6341  137.5037  156.7739 O.2     1  UNL1       -0.2699
     12 C         141.9936  136.1087  155.3204 C.ar    1  UNL1        0.0558
     13 C         142.0114  136.4559  153.8612 C.ar    1  UNL1        0.0047
     14 C         141.7711  135.3900  152.8336 C.ar    1  UNL1        0.0025
     15 C         141.5129  133.9768  153.2651 C.ar    1  UNL1        0.0296
     16 C         141.4950  133.6295  154.7242 C.ar    1  UNL1        0.1403
     17 F         141.2368  132.2163  155.1557 F       1  UNL1       -0.2042
     18 C         141.7354  134.6955  155.7519 C.ar    1  UNL1        0.0341
     19 C         145.4240  141.9067  163.1090 C.3     1  UNL1        0.1149
     20 N         144.4644  142.1534  161.9828 N.am    1  UNL1       -0.2760
     21 C         144.9739  142.6250  160.6531 C.3     1  UNL1        0.1149
     22 C         142.9954  141.9286  162.1862 C.2     1  UNL1        0.2271
     23 O         142.4859  141.4570  163.5160 O.2     1  UNL1       -0.2748
     24 C         141.3167  143.4880  160.9614 C.3     1  UNL1        0.1371
     25 N         142.0842  144.7437  160.6709 N.3     1  UNL1       -0.3146
     26 H         141.4417  145.5353  160.6396 H       1  UNL1        0.1192
     27 H         142.5563  144.6532  159.7712 H       1  UNL1        0.1192
     28 C         139.8302  143.5451  161.1534 C.2     1  UNL1        0.2402
     29 O         138.9158  143.4152  159.9714 O.2     1  UNL1       -0.2734
     30 N         139.2580  143.7320  162.5274 N.am    1  UNL1       -0.2756
     31 C         137.8002  143.8078  162.8724 C.3     1  UNL1        0.0964
     32 C         137.6843  143.9986  164.3558 C.3     1  UNL1        0.0585
     33 C         139.0706  144.0407  164.9274 C.3     1  UNL1        0.1824
     34 F         139.4224  144.2166  166.3748 F       1  UNL1       -0.2354
     35 C         140.0431  143.8759  163.7973 C.3     1  UNL1        0.1286
@<TRIPOS>BOND
     1    19    20    1
     2    20    21    1
     3    20    22   am
     4    22    23    2
     5    22     1    1
     6     1     2    1
     7     2     3    1
     8     3     4    1
     9     4     5    1
    10     5     8    1
    11     8     9    1
    12     8    10   am
    13    10    11    2
    14    10    12    1
    15    12    13   ar
    16    13    14   ar
    17    14    15   ar
    18    15    16   ar
    19    16    17    1
    20    16    18   ar
    21     5     6    1
    22     6     7    1
    23     1    24    1
    24    24    25    1
    25    24    28    1
    26    28    29    2
    27    28    30   am
    28    30    31    1
    29    31    32    1
    30    32    33    1
    31    33    34    1
    32    33    35    1
    33     7     2    1
    34    35    30    1
    35    18    12   ar
    36    25    26    1
    37    25    27    1
@<TRIPOS>MOLECULE
*****
 35 37 0 0 0
SMALL
GASTEIGER

@<TRIPOS>ATOM
      1 C         141.4399  141.8161  168.5852 C.3     1  UNL1        0.0997
      2 C         141.6761  142.3001  167.1852 C.3     1  UNL1        0.0105
      3 C         143.0056  142.0752  166.5282 C.3     1  UNL1        0.0022
      4 C         143.2418  142.5593  165.1282 C.3     1  UNL1        0.0198
      5 C         142.1485  143.2682  164.3853 C.3     1  UNL1        0.0757
      6 C         140.8190  143.4932  165.0423 C.3     1  UNL1        0.0198
      7 C         140.5828  143.0091  166.4422 C.3     1  UNL1        0.0022
      8 N         142.3848  143.7523  162.9853 N.am    1  UNL1       -0.2760
      9 C         143.3563  144.8665  162.7309 C.3     1  UNL1        0.1151
     10 C         141.6495  143.1221  161.8398 C.2     1  UNL1        0.2491
     11 O         140.6779  142.0079  162.0942 O.2     1  UNL1       -0.2699
     12 C         141.8857  143.6061  160.4398 C.ar    1  UNL1        0.0558
     13 C         142.9686  142.9886  159.6054 C.ar    1  UNL1        0.0047
     14 C         143.2048  143.4726  158.2055 C.ar    1  UNL1        0.0025
     15 C         142.3581  144.5741  157.6398 C.ar    1  UNL1        0.0296
     16 C         141.2753  145.1916  158.4741 C.ar    1  UNL1        0.1403
     17 F         140.4287  146.2931  157.9085 F       1  UNL1       -0.2042
     18 C         141.0391  144.7076  159.8742 C.ar    1  UNL1        0.0341
     19 C         143.1184  143.9596  171.4727 C.3     1  UNL1        0.1149
     20 N         142.9596  143.0173  170.3165 N.am    1  UNL1       -0.2760
     21 C         144.1618  142.3337  169.7354 C.3     1  UNL1        0.1149
     22 C         141.5987  142.7584  169.7414 C.2     1  UNL1        0.2271
     23 O         140.3965  143.4420  170.3224 O.2     1  UNL1       -0.2748
     24 C         141.0448  140.3898  168.8289 C.3     1  UNL1        0.1371
     25 N         141.9959  139.4549  169.5157 N.3     1  UNL1       -0.3146
     26 H         141.5670  138.5331  169.5977 H       1  UNL1        0.1192
     27 H         142.2124  139.8131  170.4459 H       1  UNL1        0.1192
     28 C         139.6987  139.8982  168.3859 C.2     1  UNL1        0.2402
     29 O         138.5396  139.9261  169.3376 O.2     1  UNL1       -0.2734
     30 N         139.5117  139.3786  166.9912 N.am    1  UNL1       -0.2756
     31 C         138.2315  138.8567  166.4091 C.3     1  UNL1        0.0964
     32 C         138.5006  138.4453  164.9919 C.3     1  UNL1        0.0585
     33 C         139.9470  138.7131  164.6982 C.3     1  UNL1        0.1824
     34 F         140.6459  138.4501  163.3973 F       1  UNL1       -0.2354
     35 C         140.5719  139.2899  165.9339 C.3     1  UNL1        0.1286
@<TRIPOS>BOND
     1    19    20    1
     2    20    21    1
     3    20    22   am
     4    22    23    2
     5    22     1    1
     6     1     2    1
     7     2     3    1
     8     3     4    1
     9     4     5    1
    10     5     8    1
    11     8     9    1
    12     8    10   am
    13    10    11    2
    14    10    12    1
    15    12    13   ar
    16    13    14   ar
    17    14    15   ar
    18    15    16   ar
    19    16    17    1
    20    16    18   ar
    21     5     6    1
    22     6     7    1
    23     1    24    1
    24    24    25    1
    25    24    28    1
    26    28    29    2
    27    28    30   am
    28    30    31    1
    29    31    32    1
    30    32    33    1
    31    33    34    1
    32    33    35    1
    33     7     2    1
    34    35    30    1
    35    18    12   ar
    36    25    26    1
    37    25    27    1
