@<TRIPOS>MOLECULE
*****
 37 42 0 0 0
SMALL
GASTEIGER

@<TRIPOS>ATOM
      1 C         141.1692  145.5070  159.0521 C.3     1  UNL1        0.0666
      2 C         139.9837  145.5640  159.9693 C.3     1  UNL1        0.0294
      3 C         140.1799  145.8240  161.4336 C.3     1  UNL1        0.0730
      4 C         141.9334  140.9832  168.1776 C.ar    1  UNL1        0.0882
      5 N         140.7821  140.0639  167.8959 N.ar    1  UNL1       -0.2427
      6 C         140.0854  140.5578  166.6628 C.ar    1  UNL1        0.0871
      7 C         138.8878  140.0507  165.9153 C.ar    1  UNL1        0.0193
      8 C         138.4110  140.7682  164.6873 C.ar    1  UNL1       -0.0030
      9 C         139.1318  141.9929  164.2069 C.ar    1  UNL1       -0.0241
     10 C         140.3293  142.4999  164.9543 C.ar    1  UNL1       -0.0172
     11 C         140.8061  141.7824  166.1822 C.ar    1  UNL1        0.0439
     12 S         141.9482  142.0453  167.1185 S.2     1  UNL1       -0.0711
     13 C         141.1861  143.6928  164.6492 C.3     1  UNL1        0.0439
     14 C         141.0569  144.6731  163.5212 C.3     1  UNL1        0.0768
     15 N         140.0391  144.7027  162.4199 N.3     1  UNL1       -0.2720
     16 C         138.8990  143.7593  162.1744 C.3     1  UNL1        0.0768
     17 C         138.4952  142.5533  162.9697 C.3     1  UNL1        0.0434
     18 C         143.6749  142.0618  169.7755 C.3     1  UNL1        0.0073
     19 C         142.9000  140.8617  169.3180 C.3     1  UNL1        0.0526
     20 S         141.8191  144.1899  158.7475 S.3     1  UNL1       -0.0756
     21 C         142.0467  143.1940  159.8459 C.ar    1  UNL1        0.1932
     22 N         143.1888  143.1994  160.8182 N.ar    1  UNL1       -0.1221
     23 N         143.0201  142.0267  161.7381 N.ar    1  UNL1       -0.1282
     24 C         141.7736  141.2965  161.3342 C.ar    1  UNL1        0.1669
     25 N         141.1720  142.0180  160.1648 N.ar    1  UNL1       -0.2884
     26 C         139.9162  141.6312  159.4413 C.3     1  UNL1        0.1340
     27 C         141.2250  140.0616  161.9855 C.ar    1  UNL1        0.0374
     28 C         140.0183  139.3825  161.4088 C.ar    1  UNL1        0.0031
     29 C         139.4697  138.1476  162.0600 C.ar    1  UNL1        0.0016
     30 C         140.1278  137.5918  163.2879 C.ar    1  UNL1        0.0191
     31 C         141.3345  138.2709  163.8647 C.ar    1  UNL1        0.0810
     32 N         141.9927  137.7151  165.0926 N.ar    1  UNL1       -0.2497
     33 C         143.1995  138.3941  165.6694 C.ar    1  UNL1        0.0593
     34 C         143.8576  137.8384  166.8974 C.3     1  UNL1        0.0521
     35 C         143.7480  139.6291  165.0181 C.ar    1  UNL1        0.0147
     36 C         143.0898  140.1848  163.7901 C.ar    1  UNL1        0.0028
     37 C         141.8831  139.5057  163.2134 C.ar    1  UNL1        0.0206
@<TRIPOS>BOND
     1    18    19    1
     2    19     4    1
     3     4     5   ar
     4     5     6   ar
     5     6     7   ar
     6     7     8   ar
     7     8     9   ar
     8     9    10   ar
     9    10    11   ar
    10    11    12   ar
    11    10    13    1
    12    13    14    1
    13    14    15    1
    14    15     3    1
    15     3     2    1
    16     2     1    1
    17     1    20    1
    18    20    21    1
    19    21    22   ar
    20    22    23   ar
    21    23    24   ar
    22    24    27    1
    23    27    28   ar
    24    28    29   ar
    25    29    30   ar
    26    30    31   ar
    27    31    32   ar
    28    32    33   ar
    29    33    34    1
    30    33    35   ar
    31    35    36   ar
    32    36    37   ar
    33    24    25   ar
    34    25    26    1
    35    15    16    1
    36    16    17    1
    37    12     4   ar
    38    25    21   ar
    39    11     6   ar
    40    37    27   ar
    41    17     9    1
    42    37    31   ar
@<TRIPOS>MOLECULE
*****
 37 42 0 0 0
SMALL
GASTEIGER

@<TRIPOS>ATOM
      1 C         139.9891  144.4207  158.0666 C.3     1  UNL1        0.0666
      2 C         140.4220  143.2646  157.2144 C.3     1  UNL1        0.0294
      3 C         139.6694  141.9682  157.2704 C.3     1  UNL1        0.0730
      4 C         142.4519  138.5947  164.5413 C.ar    1  UNL1        0.0882
      5 N         141.1371  137.9232  164.8061 N.ar    1  UNL1       -0.2427
      6 C         140.2101  138.2567  163.6749 C.ar    1  UNL1        0.0871
      7 C         138.7863  137.8746  163.3981 C.ar    1  UNL1        0.0193
      8 C         138.1044  138.3701  162.1572 C.ar    1  UNL1       -0.0030
      9 C         138.8465  139.2478  161.1933 C.ar    1  UNL1       -0.0241
     10 C         140.2703  139.6298  161.4702 C.ar    1  UNL1       -0.0172
     11 C         140.9522  139.1343  162.7109 C.ar    1  UNL1        0.0439
     12 S         142.3376  139.3432  163.2464 S.2     1  UNL1       -0.0711
     13 C         141.1853  140.4879  160.6476 C.3     1  UNL1        0.0439
     14 C         140.9023  141.1758  159.3449 C.3     1  UNL1        0.0768
     15 N         139.6347  141.1755  158.5433 N.3     1  UNL1       -0.2720
     16 C         138.3367  140.4873  158.8461 C.3     1  UNL1        0.0768
     17 C         137.9859  139.6293  160.0255 C.3     1  UNL1        0.0434
     18 C         143.5195  138.2720  166.8878 C.3     1  UNL1        0.0073
     19 C         143.6676  138.5292  165.4175 C.3     1  UNL1        0.0526
     20 S         141.0081  145.2101  158.8336 S.3     1  UNL1       -0.0756
     21 C         141.0249  145.1570  160.3325 C.ar    1  UNL1        0.1932
     22 N         140.0872  145.8830  161.2510 N.ar    1  UNL1       -0.1221
     23 N         140.4651  145.5434  162.6624 N.ar    1  UNL1       -0.1282
     24 C         141.6364  144.6075  162.6161 C.ar    1  UNL1        0.1669
     25 N         141.9824  144.3687  161.1762 N.ar    1  UNL1       -0.2884
     26 C         143.0912  143.4950  160.6690 C.3     1  UNL1        0.1340
     27 C         142.3385  144.0145  163.8016 C.ar    1  UNL1        0.0374
     28 C         143.7402  144.4350  164.1308 C.ar    1  UNL1        0.0031
     29 C         144.4423  143.8420  165.3163 C.ar    1  UNL1        0.0016
     30 C         143.7428  142.8285  166.1726 C.ar    1  UNL1        0.0191
     31 C         142.3411  142.4080  165.8434 C.ar    1  UNL1        0.0810
     32 N         141.6414  141.3944  166.6997 N.ar    1  UNL1       -0.2497
     33 C         140.2397  140.9739  166.3706 C.ar    1  UNL1        0.0593
     34 C         139.5401  139.9603  167.2269 C.3     1  UNL1        0.0521
     35 C         139.5376  141.5669  165.1850 C.ar    1  UNL1        0.0147
     36 C         140.2373  142.5805  164.3287 C.ar    1  UNL1        0.0028
     37 C         141.6390  143.0010  164.6579 C.ar    1  UNL1        0.0206
@<TRIPOS>BOND
     1    18    19    1
     2    19     4    1
     3     4     5   ar
     4     5     6   ar
     5     6     7   ar
     6     7     8   ar
     7     8     9   ar
     8     9    10   ar
     9    10    11   ar
    10    11    12   ar
    11    10    13    1
    12    13    14    1
    13    14    15    1
    14    15     3    1
    15     3     2    1
    16     2     1    1
    17     1    20    1
    18    20    21    1
    19    21    22   ar
    20    22    23   ar
    21    23    24   ar
    22    24    27    1
    23    27    28   ar
    24    28    29   ar
    25    29    30   ar
    26    30    31   ar
    27    31    32   ar
    28    32    33   ar
    29    33    34    1
    30    33    35   ar
    31    35    36   ar
    32    36    37   ar
    33    24    25   ar
    34    25    26    1
    35    15    16    1
    36    16    17    1
    37    12     4   ar
    38    25    21   ar
    39    11     6   ar
    40    37    27   ar
    41    17     9    1
    42    37    31   ar
@<TRIPOS>MOLECULE
*****
 37 42 0 0 0
SMALL
GASTEIGER

@<TRIPOS>ATOM
      1 C         139.6830  144.1900  157.8178 C.3     1  UNL1        0.0666
      2 C         139.6086  142.7251  158.1317 C.3     1  UNL1        0.0294
      3 C         138.3973  142.1653  158.8171 C.3     1  UNL1        0.0730
      4 C         139.8454  140.7995  167.0650 C.ar    1  UNL1        0.0882
      5 N         139.6164  139.3237  166.9253 N.ar    1  UNL1       -0.2427
      6 C         139.2929  139.0388  165.4886 C.ar    1  UNL1        0.0871
      7 C         138.9756  137.7637  164.7650 C.ar    1  UNL1        0.0193
      8 C         138.6874  137.7883  163.2931 C.ar    1  UNL1       -0.0030
      9 C         138.7163  139.0882  162.5449 C.ar    1  UNL1       -0.0241
     10 C         139.0336  140.3631  163.2685 C.ar    1  UNL1       -0.0172
     11 C         139.3219  140.3385  164.7403 C.ar    1  UNL1        0.0439
     12 S         139.6633  141.4267  165.7146 S.2     1  UNL1       -0.0711
     13 C         139.1144  141.7560  162.7176 C.3     1  UNL1        0.0439
     14 C         138.8978  142.2177  161.3068 C.3     1  UNL1        0.0768
     15 N         138.5470  141.4007  160.0989 N.3     1  UNL1       -0.2720
     16 C         138.3261  139.9201  160.0030 C.3     1  UNL1        0.0768
     17 C         138.4015  138.8909  161.0916 C.3     1  UNL1        0.0434
     18 C         140.5652  142.9744  168.2905 C.3     1  UNL1        0.0073
     19 C         140.1949  141.5214  168.3325 C.3     1  UNL1        0.0526
     20 S         140.8431  145.0042  158.3086 S.3     1  UNL1       -0.0756
     21 C         141.8409  144.3969  159.2496 C.ar    1  UNL1        0.1932
     22 N         143.0627  143.6198  158.8580 N.ar    1  UNL1       -0.1221
     23 N         143.7691  143.2026  160.1139 N.ar    1  UNL1       -0.1282
     24 C         142.9837  143.7219  161.2816 C.ar    1  UNL1        0.1669
     25 N         141.7921  144.4600  160.7475 N.ar    1  UNL1       -0.2884
     26 C         140.7369  145.1415  161.5674 C.3     1  UNL1        0.1340
     27 C         143.3294  143.5358  162.7293 C.ar    1  UNL1        0.0374
     28 C         143.8195  144.6994  163.5390 C.ar    1  UNL1        0.0031
     29 C         144.1652  144.5133  164.9867 C.ar    1  UNL1        0.0016
     30 C         144.0207  143.1636  165.6248 C.ar    1  UNL1        0.0191
     31 C         143.5305  141.9999  164.8151 C.ar    1  UNL1        0.0810
     32 N         143.3860  140.6501  165.4532 N.ar    1  UNL1       -0.2497
     33 C         142.8958  139.4863  164.6435 C.ar    1  UNL1        0.0593
     34 C         142.7513  138.1365  165.2815 C.3     1  UNL1        0.0521
     35 C         142.5502  139.6725  163.1958 C.ar    1  UNL1        0.0147
     36 C         142.6947  141.0223  162.5577 C.ar    1  UNL1        0.0028
     37 C         143.1849  142.1860  163.3674 C.ar    1  UNL1        0.0206
@<TRIPOS>BOND
     1    18    19    1
     2    19     4    1
     3     4     5   ar
     4     5     6   ar
     5     6     7   ar
     6     7     8   ar
     7     8     9   ar
     8     9    10   ar
     9    10    11   ar
    10    11    12   ar
    11    10    13    1
    12    13    14    1
    13    14    15    1
    14    15     3    1
    15     3     2    1
    16     2     1    1
    17     1    20    1
    18    20    21    1
    19    21    22   ar
    20    22    23   ar
    21    23    24   ar
    22    24    27    1
    23    27    28   ar
    24    28    29   ar
    25    29    30   ar
    26    30    31   ar
    27    31    32   ar
    28    32    33   ar
    29    33    34    1
    30    33    35   ar
    31    35    36   ar
    32    36    37   ar
    33    24    25   ar
    34    25    26    1
    35    15    16    1
    36    16    17    1
    37    12     4   ar
    38    25    21   ar
    39    11     6   ar
    40    37    27   ar
    41    17     9    1
    42    37    31   ar
@<TRIPOS>MOLECULE
*****
 37 42 0 0 0
SMALL
GASTEIGER

@<TRIPOS>ATOM
      1 C         140.2807  144.2281  157.0312 C.3     1  UNL1        0.0666
      2 C         140.5145  145.3393  158.0112 C.3     1  UNL1        0.0294
      3 C         141.6151  145.2269  159.0242 C.3     1  UNL1        0.0730
      4 C         142.0793  140.6865  166.1768 C.ar    1  UNL1        0.0882
      5 N         141.0264  141.5181  166.8474 N.ar    1  UNL1       -0.2427
      6 C         140.5809  142.5722  165.8776 C.ar    1  UNL1        0.0871
      7 C         139.5676  143.6728  165.9869 C.ar    1  UNL1        0.0193
      8 C         139.3320  144.5934  164.8262 C.ar    1  UNL1       -0.0030
      9 C         140.1098  144.4132  163.5563 C.ar    1  UNL1       -0.0241
     10 C         141.1230  143.3127  163.4471 C.ar    1  UNL1       -0.0172
     11 C         141.3586  142.3922  164.6077 C.ar    1  UNL1        0.0439
     12 S         142.2847  141.2268  164.7926 S.2     1  UNL1       -0.0711
     13 C         141.9996  142.9607  162.2818 C.3     1  UNL1        0.0439
     14 C         142.0792  143.6224  160.9379 C.3     1  UNL1        0.0768
     15 N         141.3021  144.7994  160.4276 N.3     1  UNL1       -0.2720
     16 C         140.2533  145.6056  161.1348 C.3     1  UNL1        0.0768
     17 C         139.7227  145.4337  162.5273 C.3     1  UNL1        0.0434
     18 C         143.4569  138.5013  165.8996 C.3     1  UNL1        0.0073
     19 C         142.8003  139.5196  166.7838 C.3     1  UNL1        0.0526
     20 S         139.2280  143.1954  157.3054 S.3     1  UNL1       -0.0756
     21 C         139.1662  142.5249  158.6458 C.ar    1  UNL1        0.1932
     22 N         138.3101  142.9456  159.8034 N.ar    1  UNL1       -0.1221
     23 N         138.5644  141.9968  160.9370 N.ar    1  UNL1       -0.1282
     24 C         139.5778  140.9896  160.4799 C.ar    1  UNL1        0.1669
     25 N         139.9497  141.3160  159.0639 N.ar    1  UNL1       -0.2884
     26 C         140.9325  140.5654  158.2151 C.3     1  UNL1        0.1340
     27 C         140.1234  139.8553  161.2957 C.ar    1  UNL1        0.0374
     28 C         141.1739  138.9535  160.7183 C.ar    1  UNL1        0.0031
     29 C         141.7195  137.8192  161.5341 C.ar    1  UNL1        0.0016
     30 C         141.2147  137.5864  162.9272 C.ar    1  UNL1        0.0191
     31 C         140.1642  138.4881  163.5046 C.ar    1  UNL1        0.0810
     32 N         139.6593  138.2555  164.8978 N.ar    1  UNL1       -0.2497
     33 C         138.6088  139.1572  165.4753 C.ar    1  UNL1        0.0593
     34 C         138.1039  138.9245  166.8685 C.3     1  UNL1        0.0521
     35 C         138.0632  140.2916  164.6594 C.ar    1  UNL1        0.0147
     36 C         138.5681  140.5242  163.2663 C.ar    1  UNL1        0.0028
     37 C         139.6186  139.6225  162.6889 C.ar    1  UNL1        0.0206
@<TRIPOS>BOND
     1    18    19    1
     2    19     4    1
     3     4     5   ar
     4     5     6   ar
     5     6     7   ar
     6     7     8   ar
     7     8     9   ar
     8     9    10   ar
     9    10    11   ar
    10    11    12   ar
    11    10    13    1
    12    13    14    1
    13    14    15    1
    14    15     3    1
    15     3     2    1
    16     2     1    1
    17     1    20    1
    18    20    21    1
    19    21    22   ar
    20    22    23   ar
    21    23    24   ar
    22    24    27    1
    23    27    28   ar
    24    28    29   ar
    25    29    30   ar
    26    30    31   ar
    27    31    32   ar
    28    32    33   ar
    29    33    34    1
    30    33    35   ar
    31    35    36   ar
    32    36    37   ar
    33    24    25   ar
    34    25    26    1
    35    15    16    1
    36    16    17    1
    37    12     4   ar
    38    25    21   ar
    39    11     6   ar
    40    37    27   ar
    41    17     9    1
    42    37    31   ar
@<TRIPOS>MOLECULE
*****
 37 42 0 0 0
SMALL
GASTEIGER

@<TRIPOS>ATOM
      1 C         143.5978  142.5598  157.7474 C.3     1  UNL1        0.0666
      2 C         142.7314  143.7833  157.6979 C.3     1  UNL1        0.0294
      3 C         141.3137  143.7187  158.1838 C.3     1  UNL1        0.0730
      4 C         138.9204  139.9299  165.3885 C.ar    1  UNL1        0.0882
      5 N         139.1982  141.1596  166.2013 N.ar    1  UNL1       -0.2427
      6 C         139.6978  142.2262  165.2724 C.ar    1  UNL1        0.0871
      7 C         140.1285  143.6432  165.5102 C.ar    1  UNL1        0.0193
      8 C         140.5903  144.4896  164.3611 C.ar    1  UNL1       -0.0030
      9 C         140.6213  143.9190  162.9742 C.ar    1  UNL1       -0.0241
     10 C         140.1906  142.5021  162.7364 C.ar    1  UNL1       -0.0172
     11 C         139.7289  141.6556  163.8854 C.ar    1  UNL1        0.0439
     12 S         139.2484  140.2365  163.9572 S.2     1  UNL1       -0.0711
     13 C         140.1445  141.7430  161.4434 C.3     1  UNL1        0.0439
     14 C         140.5177  142.2137  160.0689 C.3     1  UNL1        0.0768
     15 N         141.0292  143.5594  159.6480 N.3     1  UNL1       -0.2720
     16 C         141.2939  144.7670  160.4975 C.3     1  UNL1        0.0768
     17 C         141.1123  144.9271  161.9778 C.3     1  UNL1        0.0434
     18 C         138.7636  137.3420  165.2217 C.3     1  UNL1        0.0073
     19 C         138.4052  138.6232  165.9146 C.3     1  UNL1        0.0526
     20 S         144.7024  142.4634  158.7575 S.3     1  UNL1       -0.0756
     21 C         144.3760  142.3402  160.2164 C.ar    1  UNL1        0.1932
     22 N         144.4608  143.4384  161.2346 N.ar    1  UNL1       -0.1221
     23 N         144.0447  142.8743  162.5607 N.ar    1  UNL1       -0.1282
     24 C         143.7027  141.4273  162.3620 C.ar    1  UNL1        0.1669
     25 N         143.9075  141.0973  160.9131 N.ar    1  UNL1       -0.2884
     26 C         143.6831  139.7592  160.2734 C.3     1  UNL1        0.1340
     27 C         143.2376  140.4772  163.4255 C.ar    1  UNL1        0.0374
     28 C         142.8355  139.0795  163.0587 C.ar    1  UNL1        0.0031
     29 C         142.3704  138.1294  164.1222 C.ar    1  UNL1        0.0016
     30 C         142.3074  138.5770  165.5525 C.ar    1  UNL1        0.0191
     31 C         142.7096  139.9747  165.9192 C.ar    1  UNL1        0.0810
     32 N         142.6466  140.4224  167.3494 N.ar    1  UNL1       -0.2497
     33 C         143.0487  141.8202  167.7163 C.ar    1  UNL1        0.0593
     34 C         142.9858  142.2679  169.1465 C.3     1  UNL1        0.0521
     35 C         143.5138  142.7703  166.6527 C.ar    1  UNL1        0.0147
     36 C         143.5768  142.3226  165.2225 C.ar    1  UNL1        0.0028
     37 C         143.1747  140.9248  164.8557 C.ar    1  UNL1        0.0206
@<TRIPOS>BOND
     1    18    19    1
     2    19     4    1
     3     4     5   ar
     4     5     6   ar
     5     6     7   ar
     6     7     8   ar
     7     8     9   ar
     8     9    10   ar
     9    10    11   ar
    10    11    12   ar
    11    10    13    1
    12    13    14    1
    13    14    15    1
    14    15     3    1
    15     3     2    1
    16     2     1    1
    17     1    20    1
    18    20    21    1
    19    21    22   ar
    20    22    23   ar
    21    23    24   ar
    22    24    27    1
    23    27    28   ar
    24    28    29   ar
    25    29    30   ar
    26    30    31   ar
    27    31    32   ar
    28    32    33   ar
    29    33    34    1
    30    33    35   ar
    31    35    36   ar
    32    36    37   ar
    33    24    25   ar
    34    25    26    1
    35    15    16    1
    36    16    17    1
    37    12     4   ar
    38    25    21   ar
    39    11     6   ar
    40    37    27   ar
    41    17     9    1
    42    37    31   ar
@<TRIPOS>MOLECULE
*****
 37 42 0 0 0
SMALL
GASTEIGER

@<TRIPOS>ATOM
      1 C         140.8971  140.5416  155.7885 C.3     1  UNL1        0.0666
      2 C         140.6418  141.9557  156.2187 C.3     1  UNL1        0.0294
      3 C         141.7298  142.7453  156.8844 C.3     1  UNL1        0.0730
      4 C         141.9879  141.3642  165.2520 C.ar    1  UNL1        0.0882
      5 N         141.6490  142.7922  165.5617 N.ar    1  UNL1       -0.2427
      6 C         141.4874  143.5227  164.2616 C.ar    1  UNL1        0.0871
      7 C         141.1534  144.9510  163.9476 C.ar    1  UNL1        0.0193
      8 C         141.0584  145.4027  162.5204 C.ar    1  UNL1       -0.0030
      9 C         141.2974  144.4261  161.4071 C.ar    1  UNL1       -0.0241
     10 C         141.6314  142.9980  161.7212 C.ar    1  UNL1       -0.0172
     11 C         141.7264  142.5462  163.1483 C.ar    1  UNL1        0.0439
     12 S         142.0357  141.2122  163.7604 S.2     1  UNL1       -0.0711
     13 C         141.9047  141.8705  160.7702 C.3     1  UNL1        0.0439
     14 C         141.9114  141.8930  159.2703 C.3     1  UNL1        0.0768
     15 N         141.6466  143.0483  158.3511 N.3     1  UNL1       -0.2720
     16 C         141.3096  144.4666  158.7046 C.3     1  UNL1        0.0768
     17 C         141.1542  145.0798  160.0647 C.3     1  UNL1        0.0434
     18 C         142.6683  138.9174  165.7998 C.3     1  UNL1        0.0073
     19 C         142.2356  140.2788  166.2572 C.3     1  UNL1        0.0526
     20 S         139.9861  139.4420  156.2474 S.3     1  UNL1       -0.0756
     21 C         139.1904  139.6045  157.5085 C.ar    1  UNL1        0.1932
     22 N         137.7916  140.1371  157.6060 N.ar    1  UNL1       -0.1221
     23 N         137.3905  140.1247  159.0513 N.ar    1  UNL1       -0.1282
     24 C         138.5415  139.5844  159.8471 C.ar    1  UNL1        0.1669
     25 N         139.6539  139.2629  158.8936 N.ar    1  UNL1       -0.2884
     26 C         140.9945  138.6988  159.2608 C.3     1  UNL1        0.1340
     27 C         138.5743  139.3983  161.3352 C.ar    1  UNL1        0.0374
     28 C         138.8111  138.0356  161.9155 C.ar    1  UNL1        0.0031
     29 C         138.8439  137.8495  163.4036 C.ar    1  UNL1        0.0016
     30 C         138.6400  139.0260  164.3113 C.ar    1  UNL1        0.0191
     31 C         138.4032  140.3888  163.7309 C.ar    1  UNL1        0.0810
     32 N         138.1992  141.5655  164.6386 N.ar    1  UNL1       -0.2497
     33 C         137.9624  142.9283  164.0583 C.ar    1  UNL1        0.0593
     34 C         137.7585  144.1049  164.9659 C.3     1  UNL1        0.0521
     35 C         137.9296  143.1143  162.5701 C.ar    1  UNL1        0.0147
     36 C         138.1336  141.9377  161.6625 C.ar    1  UNL1        0.0028
     37 C         138.3704  140.5749  162.2429 C.ar    1  UNL1        0.0206
@<TRIPOS>BOND
     1    18    19    1
     2    19     4    1
     3     4     5   ar
     4     5     6   ar
     5     6     7   ar
     6     7     8   ar
     7     8     9   ar
     8     9    10   ar
     9    10    11   ar
    10    11    12   ar
    11    10    13    1
    12    13    14    1
    13    14    15    1
    14    15     3    1
    15     3     2    1
    16     2     1    1
    17     1    20    1
    18    20    21    1
    19    21    22   ar
    20    22    23   ar
    21    23    24   ar
    22    24    27    1
    23    27    28   ar
    24    28    29   ar
    25    29    30   ar
    26    30    31   ar
    27    31    32   ar
    28    32    33   ar
    29    33    34    1
    30    33    35   ar
    31    35    36   ar
    32    36    37   ar
    33    24    25   ar
    34    25    26    1
    35    15    16    1
    36    16    17    1
    37    12     4   ar
    38    25    21   ar
    39    11     6   ar
    40    37    27   ar
    41    17     9    1
    42    37    31   ar
@<TRIPOS>MOLECULE
*****
 37 42 0 0 0
SMALL
GASTEIGER

@<TRIPOS>ATOM
      1 C         138.8476  139.6644  157.6826 C.3     1  UNL1        0.0666
      2 C         140.3463  139.6051  157.6655 C.3     1  UNL1        0.0294
      3 C         141.0602  138.4771  158.3497 C.3     1  UNL1        0.0730
      4 C         141.2378  139.8046  166.7281 C.ar    1  UNL1        0.0882
      5 N         142.7368  139.7660  166.7659 N.ar    1  UNL1       -0.2427
      6 C         143.2298  139.5292  165.3692 C.ar    1  UNL1        0.0871
      7 C         144.6120  139.3978  164.8014 C.ar    1  UNL1        0.0193
      8 C         144.7998  139.1586  163.3325 C.ar    1  UNL1       -0.0030
      9 C         143.6054  139.0508  162.4315 C.ar    1  UNL1       -0.0241
     10 C         142.2234  139.1821  162.9993 C.ar    1  UNL1       -0.0172
     11 C         142.0355  139.4214  164.4681 C.ar    1  UNL1        0.0439
     12 S         140.8044  139.5915  165.3079 S.2     1  UNL1       -0.0711
     13 C         140.9072  139.1074  162.2835 C.3     1  UNL1        0.0439
     14 C         140.6482  138.8828  160.8231 C.3     1  UNL1        0.0768
     15 N         141.6413  138.6775  159.7180 N.3     1  UNL1       -0.2720
     16 C         143.1388  138.6461  159.8001 C.3     1  UNL1        0.0768
     17 C         144.0129  138.8122  161.0077 C.3     1  UNL1        0.0434
     18 C         140.0292  141.4103  168.3745 C.3     1  UNL1        0.0073
     19 C         140.3314  140.0185  167.9039 C.3     1  UNL1        0.0526
     20 S         138.1503  140.9898  157.7657 S.3     1  UNL1       -0.0756
     21 C         138.5808  142.0009  158.7867 C.ar    1  UNL1        0.1932
     22 N         139.2485  143.3133  158.5007 N.ar    1  UNL1       -0.1221
     23 N         139.4995  144.0008  159.8101 N.ar    1  UNL1       -0.1282
     24 C         138.9869  143.1132  160.9053 C.ar    1  UNL1        0.1669
     25 N         138.4191  141.8772  160.2728 N.ar    1  UNL1       -0.2884
     26 C         137.7985  140.7206  160.9989 C.3     1  UNL1        0.1340
     27 C         139.0338  143.4095  162.3750 C.ar    1  UNL1        0.0374
     28 C         137.7840  143.8150  163.0986 C.ar    1  UNL1        0.0031
     29 C         137.8309  144.1114  164.5683 C.ar    1  UNL1        0.0016
     30 C         139.1276  144.0022  165.3144 C.ar    1  UNL1        0.0191
     31 C         140.3773  143.5967  164.5908 C.ar    1  UNL1        0.0810
     32 N         141.6740  143.4875  165.3368 N.ar    1  UNL1       -0.2497
     33 C         142.9239  143.0819  164.6133 C.ar    1  UNL1        0.0593
     34 C         144.2206  142.9727  165.3593 C.3     1  UNL1        0.0521
     35 C         142.8769  142.7856  163.1435 C.ar    1  UNL1        0.0147
     36 C         141.5802  142.8948  162.3975 C.ar    1  UNL1        0.0028
     37 C         140.3304  143.3003  163.1211 C.ar    1  UNL1        0.0206
@<TRIPOS>BOND
     1    18    19    1
     2    19     4    1
     3     4     5   ar
     4     5     6   ar
     5     6     7   ar
     6     7     8   ar
     7     8     9   ar
     8     9    10   ar
     9    10    11   ar
    10    11    12   ar
    11    10    13    1
    12    13    14    1
    13    14    15    1
    14    15     3    1
    15     3     2    1
    16     2     1    1
    17     1    20    1
    18    20    21    1
    19    21    22   ar
    20    22    23   ar
    21    23    24   ar
    22    24    27    1
    23    27    28   ar
    24    28    29   ar
    25    29    30   ar
    26    30    31   ar
    27    31    32   ar
    28    32    33   ar
    29    33    34    1
    30    33    35   ar
    31    35    36   ar
    32    36    37   ar
    33    24    25   ar
    34    25    26    1
    35    15    16    1
    36    16    17    1
    37    12     4   ar
    38    25    21   ar
    39    11     6   ar
    40    37    27   ar
    41    17     9    1
    42    37    31   ar
@<TRIPOS>MOLECULE
*****
 37 42 0 0 0
SMALL
GASTEIGER

@<TRIPOS>ATOM
      1 C         142.2885  138.5144  158.3655 C.3     1  UNL1        0.0666
      2 C         141.3796  138.2811  159.5357 C.3     1  UNL1        0.0294
      3 C         141.9108  137.6351  160.7810 C.3     1  UNL1        0.0730
      4 C         142.0159  140.4085  168.7990 C.ar    1  UNL1        0.0882
      5 N         140.5253  140.2973  168.9233 N.ar    1  UNL1       -0.2427
      6 C         139.9876  139.7918  167.6174 C.ar    1  UNL1        0.0871
      7 C         138.5928  139.4887  167.1561 C.ar    1  UNL1        0.0193
      8 C         138.3564  138.9844  165.7633 C.ar    1  UNL1       -0.0030
      9 C         139.5149  138.7832  164.8318 C.ar    1  UNL1       -0.0241
     10 C         140.9095  139.0863  165.2932 C.ar    1  UNL1       -0.0172
     11 C         141.1460  139.5905  166.6859 C.ar    1  UNL1        0.0439
     12 S         142.3995  139.9717  167.4162 S.2     1  UNL1       -0.0711
     13 C         142.1954  138.9568  164.5317 C.3     1  UNL1        0.0439
     14 C         142.4040  138.4922  163.1207 C.3     1  UNL1        0.0768
     15 N         141.3784  138.0424  162.1229 N.3     1  UNL1       -0.2720
     16 C         139.8908  137.9461  162.2895 C.3     1  UNL1        0.0768
     17 C         139.0614  138.2758  163.4951 C.3     1  UNL1        0.0434
     18 C         143.6908  142.1734  169.7099 C.3     1  UNL1        0.0073
     19 C         142.9576  140.8746  169.8694 C.3     1  UNL1        0.0526
     20 S         143.3898  139.5281  158.4616 S.3     1  UNL1       -0.0756
     21 C         143.6443  140.2384  159.7580 C.ar    1  UNL1        0.1932
     22 N         144.5964  139.8005  160.8312 N.ar    1  UNL1       -0.1221
     23 N         144.5320  140.8027  161.9453 N.ar    1  UNL1       -0.1282
     24 C         143.5400  141.8601  161.5608 C.ar    1  UNL1        0.1669
     25 N         142.9913  141.5113  160.2089 N.ar    1  UNL1       -0.2884
     26 C         141.9692  142.2975  159.4426 C.3     1  UNL1        0.1340
     27 C         143.1628  143.0562  162.3835 C.ar    1  UNL1        0.0374
     28 C         144.1554  144.1593  162.6023 C.ar    1  UNL1        0.0031
     29 C         143.7783  145.3554  163.4251 C.ar    1  UNL1        0.0016
     30 C         142.4085  145.4486  164.0291 C.ar    1  UNL1        0.0191
     31 C         141.4158  144.3455  163.8104 C.ar    1  UNL1        0.0810
     32 N         140.0460  144.4385  164.4144 N.ar    1  UNL1       -0.2497
     33 C         139.0533  143.3355  164.1957 C.ar    1  UNL1        0.0593
     34 C         137.6834  143.4285  164.7998 C.3     1  UNL1        0.0521
     35 C         139.4305  142.1393  163.3729 C.ar    1  UNL1        0.0147
     36 C         140.8003  142.0463  162.7689 C.ar    1  UNL1        0.0028
     37 C         141.7930  143.1494  162.9876 C.ar    1  UNL1        0.0206
@<TRIPOS>BOND
     1    18    19    1
     2    19     4    1
     3     4     5   ar
     4     5     6   ar
     5     6     7   ar
     6     7     8   ar
     7     8     9   ar
     8     9    10   ar
     9    10    11   ar
    10    11    12   ar
    11    10    13    1
    12    13    14    1
    13    14    15    1
    14    15     3    1
    15     3     2    1
    16     2     1    1
    17     1    20    1
    18    20    21    1
    19    21    22   ar
    20    22    23   ar
    21    23    24   ar
    22    24    27    1
    23    27    28   ar
    24    28    29   ar
    25    29    30   ar
    26    30    31   ar
    27    31    32   ar
    28    32    33   ar
    29    33    34    1
    30    33    35   ar
    31    35    36   ar
    32    36    37   ar
    33    24    25   ar
    34    25    26    1
    35    15    16    1
    36    16    17    1
    37    12     4   ar
    38    25    21   ar
    39    11     6   ar
    40    37    27   ar
    41    17     9    1
    42    37    31   ar
@<TRIPOS>MOLECULE
*****
 37 42 0 0 0
SMALL
GASTEIGER

@<TRIPOS>ATOM
      1 C         140.4429  144.6334  157.8077 C.3     1  UNL1        0.0666
      2 C         141.5790  144.7106  158.7841 C.3     1  UNL1        0.0294
      3 C         141.3223  145.1267  160.2023 C.3     1  UNL1        0.0730
      4 C         140.6176  141.5760  167.8760 C.ar    1  UNL1        0.0882
      5 N         141.6458  140.5316  167.5565 N.ar    1  UNL1       -0.2427
      6 C         142.1230  140.7648  166.1536 C.ar    1  UNL1        0.0871
      7 C         143.1305  140.0485  165.3040 C.ar    1  UNL1        0.0193
      8 C         143.4047  140.5207  163.9069 C.ar    1  UNL1       -0.0030
      9 C         142.6715  141.7093  163.3595 C.ar    1  UNL1       -0.0241
     10 C         141.6641  142.4255  164.2091 C.ar    1  UNL1       -0.0172
     11 C         141.3898  141.9534  165.6061 C.ar    1  UNL1        0.0439
     12 S         140.4595  142.4547  166.6706 S.2     1  UNL1       -0.0711
     13 C         140.8287  143.6219  163.8611 C.3     1  UNL1        0.0439
     14 C         140.7946  144.3973  162.5774 C.3     1  UNL1        0.0768
     15 N         141.5873  144.1679  161.3250 N.3     1  UNL1       -0.2720
     16 C         142.6100  143.1065  161.0465 C.3     1  UNL1        0.0768
     17 C         143.0925  142.0122  161.9520 C.3     1  UNL1        0.0434
     18 C         139.2554  140.5132  169.8162 C.3     1  UNL1        0.0073
     19 C         139.8777  141.7170  169.1731 C.3     1  UNL1        0.0526
     20 S         139.5114  143.4581  157.8324 S.3     1  UNL1       -0.0756
     21 C         139.3289  142.6721  159.0969 C.ar    1  UNL1        0.1932
     22 N         138.3239  142.9554  160.1738 N.ar    1  UNL1       -0.1221
     23 N         138.4932  141.9232  161.2490 N.ar    1  UNL1       -0.1282
     24 C         139.6028  141.0020  160.8365 C.ar    1  UNL1        0.1669
     25 N         140.1193  141.4648  159.5064 N.ar    1  UNL1       -0.2884
     26 C         141.2311  140.8316  158.7235 C.3     1  UNL1        0.1340
     27 C         140.1074  139.8247  161.6171 C.ar    1  UNL1        0.0374
     28 C         141.1458  138.9201  161.0227 C.ar    1  UNL1        0.0031
     29 C         141.6504  137.7428  161.8033 C.ar    1  UNL1        0.0016
     30 C         141.1166  137.4700  163.1782 C.ar    1  UNL1        0.0191
     31 C         140.0782  138.3746  163.7727 C.ar    1  UNL1        0.0810
     32 N         139.5444  138.1020  165.1477 N.ar    1  UNL1       -0.2497
     33 C         138.5059  139.0066  165.7422 C.ar    1  UNL1        0.0593
     34 C         137.9721  138.7339  167.1172 C.3     1  UNL1        0.0521
     35 C         138.0014  140.1839  164.9615 C.ar    1  UNL1        0.0147
     36 C         138.5352  140.4566  163.5865 C.ar    1  UNL1        0.0028
     37 C         139.5736  139.5520  162.9921 C.ar    1  UNL1        0.0206
@<TRIPOS>BOND
     1    18    19    1
     2    19     4    1
     3     4     5   ar
     4     5     6   ar
     5     6     7   ar
     6     7     8   ar
     7     8     9   ar
     8     9    10   ar
     9    10    11   ar
    10    11    12   ar
    11    10    13    1
    12    13    14    1
    13    14    15    1
    14    15     3    1
    15     3     2    1
    16     2     1    1
    17     1    20    1
    18    20    21    1
    19    21    22   ar
    20    22    23   ar
    21    23    24   ar
    22    24    27    1
    23    27    28   ar
    24    28    29   ar
    25    29    30   ar
    26    30    31   ar
    27    31    32   ar
    28    32    33   ar
    29    33    34    1
    30    33    35   ar
    31    35    36   ar
    32    36    37   ar
    33    24    25   ar
    34    25    26    1
    35    15    16    1
    36    16    17    1
    37    12     4   ar
    38    25    21   ar
    39    11     6   ar
    40    37    27   ar
    41    17     9    1
    42    37    31   ar
