@<TRIPOS>MOLECULE
*****
 35 38 0 0 0
SMALL
GASTEIGER

@<TRIPOS>ATOM
      1 C         140.3214  141.5253  156.4556 C.3     1  UNL1        0.1021
      2 C         140.2960  142.4572  155.2805 C.3     1  UNL1        0.0643
      3 C         140.0081  143.9150  155.4855 C.3     1  UNL1        0.1368
      4 C         140.1928  143.8927  153.9971 C.3     1  UNL1        0.0437
      5 C         139.7843  145.3650  155.1734 C.3     1  UNL1        0.0437
      6 O         139.7456  144.4408  156.8655 O.3     1  UNL1       -0.4676
      7 C         139.7710  143.5089  158.0406 C.ar    1  UNL1        0.2219
      8 N         139.5085  144.0347  159.4207 N.ar    1  UNL1       -0.2119
      9 C         139.5340  143.1028  160.5958 C.ar    1  UNL1        0.0851
     10 C         139.8219  141.6450  160.3908 C.ar    1  UNL1        0.0177
     11 C         140.0844  141.1192  159.0108 C.ar    1  UNL1        0.0034
     12 C         140.0589  142.0511  157.8356 C.ar    1  UNL1        0.0488
     13 C         139.2715  143.6286  161.9759 C.ar    1  UNL1        0.0284
     14 C         137.8937  143.5410  162.5624 C.ar    1  UNL1        0.0032
     15 C         137.6313  144.0668  163.9424 C.ar    1  UNL1        0.0115
     16 C         138.7466  144.6803  164.7360 C.ar    1  UNL1        0.0585
     17 CL        138.4841  145.2061  166.1161 Cl      1  UNL1       -0.0822
     18 C         140.1244  144.7679  164.1495 C.ar    1  UNL1        0.0228
     19 C         140.3868  144.2421  162.7695 C.ar    1  UNL1        0.0599
     20 CL        141.7646  144.3296  162.1829 Cl      1  UNL1       -0.0822
     21 C         139.8473  140.7131  161.5660 C.ar    1  UNL1        0.0015
     22 C         138.6166  139.9397  161.9366 C.ar    1  UNL1        0.0009
     23 C         138.6420  139.0078  163.1117 C.ar    1  UNL1        0.0114
     24 C         139.8981  138.8493  163.9161 C.ar    1  UNL1        0.0577
     25 CL        139.9235  137.9174  165.0913 Cl      1  UNL1       -0.0822
     26 C         141.1287  139.6227  163.5455 C.ar    1  UNL1        0.0114
     27 C         141.1033  140.5546  162.3704 C.ar    1  UNL1        0.0009
     28 C         139.4795  139.0845  156.1661 C.2     1  UNL1        0.2495
     29 O         138.0617  139.5593  156.2865 O.2     1  UNL1       -0.2725
     30 N         140.6093  140.0675  156.2506 N.am    1  UNL1       -0.3000
     31 H         141.5399  139.7559  156.1716 H       1  UNL1        0.1498
     32 C         141.1637  137.1743  155.6515 C.3     1  UNL1        0.0417
     33 C         139.7674  137.6268  155.9611 C.3     1  UNL1        0.1866
     34 O         138.6592  136.6214  156.0656 O.3     1  UNL1       -0.3758
     35 H         139.0131  135.7323  155.9071 H       1  UNL1        0.2110
@<TRIPOS>BOND
     1    33    32    1
     2    33    34    1
     3    33    28    1
     4    28    29    2
     5    28    30   am
     6    30     1    1
     7     1     2    1
     8     2     3    1
     9     3     4    1
    10     3     5    1
    11     3     6    1
    12     6     7    1
    13     7     8   ar
    14     8     9   ar
    15     9    13    1
    16    13    14   ar
    17    14    15   ar
    18    15    16   ar
    19    16    17    1
    20    16    18   ar
    21    18    19   ar
    22    19    20    1
    23     9    10   ar
    24    10    21    1
    25    21    22   ar
    26    22    23   ar
    27    23    24   ar
    28    24    25    1
    29    24    26   ar
    30    26    27   ar
    31    10    11   ar
    32    11    12   ar
    33    12     1    1
    34    12     7   ar
    35    19    13   ar
    36    27    21   ar
    37    34    35    1
    38    30    31    1
@<TRIPOS>MOLECULE
*****
 35 38 0 0 0
SMALL
GASTEIGER

@<TRIPOS>ATOM
      1 C         143.2049  139.2768  157.6217 C.3     1  UNL1        0.1021
      2 C         142.7001  138.5417  156.4156 C.3     1  UNL1        0.0643
      3 C         141.4068  137.7851  156.4853 C.3     1  UNL1        0.1368
      4 C         141.7927  137.5107  155.0621 C.3     1  UNL1        0.0437
      5 C         140.2475  136.9333  156.0607 C.3     1  UNL1        0.0437
      6 O         140.6182  137.7638  157.7611 O.3     1  UNL1       -0.4676
      7 C         141.1230  138.4989  158.9672 C.ar    1  UNL1        0.2219
      8 N         140.3344  138.4776  160.2430 N.ar    1  UNL1       -0.2119
      9 C         140.8393  139.2128  161.4491 C.ar    1  UNL1        0.0851
     10 C         142.1326  139.9693  161.3794 C.ar    1  UNL1        0.0177
     11 C         142.9212  139.9906  160.1036 C.ar    1  UNL1        0.0034
     12 C         142.4164  139.2555  158.8975 C.ar    1  UNL1        0.0488
     13 C         140.0507  139.1914  162.7250 C.ar    1  UNL1        0.0284
     14 C         139.0378  140.2633  162.9987 C.ar    1  UNL1        0.0032
     15 C         138.2493  140.2420  164.2745 C.ar    1  UNL1        0.0115
     16 C         138.4737  139.1487  165.2766 C.ar    1  UNL1        0.0585
     17 CL        137.6851  139.1273  166.5525 Cl      1  UNL1       -0.0822
     18 C         139.4866  138.0767  165.0030 C.ar    1  UNL1        0.0228
     19 C         140.2751  138.0981  163.7271 C.ar    1  UNL1        0.0599
     20 CL        141.2881  137.0261  163.4534 Cl      1  UNL1       -0.0822
     21 C         142.6374  140.7045  162.5856 C.ar    1  UNL1        0.0015
     22 C         143.5635  140.0209  163.5474 C.ar    1  UNL1        0.0009
     23 C         144.0683  140.7560  164.7535 C.ar    1  UNL1        0.0114
     24 C         143.6470  142.1747  164.9978 C.ar    1  UNL1        0.0577
     25 CL        144.1518  142.9099  166.2040 Cl      1  UNL1       -0.0822
     26 C         142.7209  142.8583  164.0360 C.ar    1  UNL1        0.0114
     27 C         142.2162  142.1232  162.8299 C.ar    1  UNL1        0.0009
     28 C         144.5462  141.3774  156.8877 C.2     1  UNL1        0.2495
     29 O         143.3006  141.9649  156.2931 O.2     1  UNL1       -0.2725
     30 N         144.4983  140.0334  157.5520 N.am    1  UNL1       -0.3000
     31 H         145.3158  139.6478  157.9422 H       1  UNL1        0.1498
     32 C         146.7379  141.9754  155.6272 C.3     1  UNL1        0.0417
     33 C         145.8396  142.1339  156.8180 C.3     1  UNL1        0.1866
     34 O         146.2346  143.0489  157.9390 O.3     1  UNL1       -0.3758
     35 H         147.0912  143.4566  157.7369 H       1  UNL1        0.2110
@<TRIPOS>BOND
     1    33    32    1
     2    33    34    1
     3    33    28    1
     4    28    29    2
     5    28    30   am
     6    30     1    1
     7     1     2    1
     8     2     3    1
     9     3     4    1
    10     3     5    1
    11     3     6    1
    12     6     7    1
    13     7     8   ar
    14     8     9   ar
    15     9    13    1
    16    13    14   ar
    17    14    15   ar
    18    15    16   ar
    19    16    17    1
    20    16    18   ar
    21    18    19   ar
    22    19    20    1
    23     9    10   ar
    24    10    21    1
    25    21    22   ar
    26    22    23   ar
    27    23    24   ar
    28    24    25    1
    29    24    26   ar
    30    26    27   ar
    31    10    11   ar
    32    11    12   ar
    33    12     1    1
    34    12     7   ar
    35    19    13   ar
    36    27    21   ar
    37    34    35    1
    38    30    31    1
@<TRIPOS>MOLECULE
*****
 35 38 0 0 0
SMALL
GASTEIGER

@<TRIPOS>ATOM
      1 C         138.6293  139.9019  156.7973 C.3     1  UNL1        0.1021
      2 C         138.0197  140.5180  155.5731 C.3     1  UNL1        0.0643
      3 C         137.4173  141.8899  155.6445 C.3     1  UNL1        0.1368
      4 C         137.1712  141.5722  154.1993 C.3     1  UNL1        0.0437
      5 C         136.7294  143.1514  155.2139 C.3     1  UNL1        0.0437
      6 O         137.4244  142.6456  156.9401 O.3     1  UNL1       -0.4676
      7 C         138.0340  142.0295  158.1644 C.ar    1  UNL1        0.2219
      8 N         138.0412  142.7853  159.4601 N.ar    1  UNL1       -0.2119
      9 C         138.6507  142.1692  160.6843 C.ar    1  UNL1        0.0851
     10 C         139.2531  140.7974  160.6129 C.ar    1  UNL1        0.0177
     11 C         139.2460  140.0416  159.3173 C.ar    1  UNL1        0.0034
     12 C         138.6364  140.6577  158.0930 C.ar    1  UNL1        0.0488
     13 C         138.6579  142.9250  161.9801 C.ar    1  UNL1        0.0284
     14 C         137.6023  142.6558  163.0112 C.ar    1  UNL1        0.0032
     15 C         137.6095  143.4116  164.3068 C.ar    1  UNL1        0.0115
     16 C         138.6723  144.4365  164.5714 C.ar    1  UNL1        0.0585
     17 CL        138.6795  145.1923  165.8671 Cl      1  UNL1       -0.0822
     18 C         139.7279  144.7057  163.5403 C.ar    1  UNL1        0.0228
     19 C         139.7207  143.9499  162.2446 C.ar    1  UNL1        0.0599
     20 CL        140.7763  144.2190  161.2134 Cl      1  UNL1       -0.0822
     21 C         139.8627  140.1813  161.8373 C.ar    1  UNL1        0.0015
     22 C         141.2770  140.5073  162.2160 C.ar    1  UNL1        0.0009
     23 C         141.8866  139.8913  163.4403 C.ar    1  UNL1        0.0114
     24 C         141.0819  138.9492  164.2858 C.ar    1  UNL1        0.0577
     25 CL        141.6915  138.3331  165.5101 Cl      1  UNL1       -0.0822
     26 C         139.6676  138.6232  163.9070 C.ar    1  UNL1        0.0114
     27 C         139.0580  139.2392  162.6828 C.ar    1  UNL1        0.0009
     28 C         140.6967  138.3678  156.4480 C.2     1  UNL1        0.2495
     29 O         141.5594  139.5774  156.2414 O.2     1  UNL1       -0.2725
     30 N         139.2317  138.5301  156.7259 N.am    1  UNL1       -0.3000
     31 H         138.6655  137.7361  156.8615 H       1  UNL1        0.1498
     32 C         142.6792  136.7540  156.9123 C.3     1  UNL1        0.0417
     33 C         141.2991  136.9959  156.3766 C.3     1  UNL1        0.1866
     34 O         140.5216  135.8660  155.7695 O.3     1  UNL1       -0.3758
     35 H         141.0518  135.0544  155.8021 H       1  UNL1        0.2110
@<TRIPOS>BOND
     1    33    32    1
     2    33    34    1
     3    33    28    1
     4    28    29    2
     5    28    30   am
     6    30     1    1
     7     1     2    1
     8     2     3    1
     9     3     4    1
    10     3     5    1
    11     3     6    1
    12     6     7    1
    13     7     8   ar
    14     8     9   ar
    15     9    13    1
    16    13    14   ar
    17    14    15   ar
    18    15    16   ar
    19    16    17    1
    20    16    18   ar
    21    18    19   ar
    22    19    20    1
    23     9    10   ar
    24    10    21    1
    25    21    22   ar
    26    22    23   ar
    27    23    24   ar
    28    24    25    1
    29    24    26   ar
    30    26    27   ar
    31    10    11   ar
    32    11    12   ar
    33    12     1    1
    34    12     7   ar
    35    19    13   ar
    36    27    21   ar
    37    34    35    1
    38    30    31    1
@<TRIPOS>MOLECULE
*****
 35 38 0 0 0
SMALL
GASTEIGER

@<TRIPOS>ATOM
      1 C         141.0255  138.2175  156.3931 C.3     1  UNL1        0.1021
      2 C         141.7946  137.3150  155.4744 C.3     1  UNL1        0.0643
      3 C         142.8940  136.4516  156.0184 C.3     1  UNL1        0.1368
      4 C         142.9526  136.0662  154.5700 C.3     1  UNL1        0.0437
      5 C         144.0137  135.4544  156.0593 C.3     1  UNL1        0.0437
      6 O         143.2242  136.4907  157.4811 O.3     1  UNL1       -0.4676
      7 C         142.4551  137.3932  158.3997 C.ar    1  UNL1        0.2219
      8 N         142.7853  137.4323  159.8624 N.ar    1  UNL1       -0.2119
      9 C         142.0162  138.3348  160.7811 C.ar    1  UNL1        0.0851
     10 C         140.9168  139.1982  160.2371 C.ar    1  UNL1        0.0177
     11 C         140.5866  139.1591  158.7744 C.ar    1  UNL1        0.0034
     12 C         141.3557  138.2566  157.8557 C.ar    1  UNL1        0.0488
     13 C         142.3465  138.3739  162.2438 C.ar    1  UNL1        0.0284
     14 C         141.5198  137.5913  163.2205 C.ar    1  UNL1        0.0032
     15 C         141.8500  137.6305  164.6831 C.ar    1  UNL1        0.0115
     16 C         143.0070  138.4522  165.1691 C.ar    1  UNL1        0.0585
     17 CL        143.3372  138.4913  166.6318 Cl      1  UNL1       -0.0822
     18 C         143.8337  139.2348  164.1924 C.ar    1  UNL1        0.0228
     19 C         143.5034  139.1957  162.7297 C.ar    1  UNL1        0.0599
     20 CL        144.3302  139.9783  161.7529 Cl      1  UNL1       -0.0822
     21 C         140.1477  140.1007  161.1558 C.ar    1  UNL1        0.0015
     22 C         138.8259  139.6574  161.7092 C.ar    1  UNL1        0.0009
     23 C         138.0568  140.5598  162.6279 C.ar    1  UNL1        0.0114
     24 C         138.6095  141.9056  162.9932 C.ar    1  UNL1        0.0577
     25 CL        137.8403  142.8081  163.9119 Cl      1  UNL1       -0.0822
     26 C         139.9313  142.3489  162.4397 C.ar    1  UNL1        0.0114
     27 C         140.7004  141.4464  161.5211 C.ar    1  UNL1        0.0009
     28 C         138.6048  138.4717  155.4845 C.2     1  UNL1        0.2495
     29 O         138.3828  136.9991  155.6640 O.2     1  UNL1       -0.2725
     30 N         139.9261  139.0809  155.8491 N.am    1  UNL1       -0.3000
     31 H         140.0718  140.0474  155.7313 H       1  UNL1        0.1498
     32 C         137.8206  140.6976  154.3980 C.3     1  UNL1        0.0417
     33 C         137.5054  139.3351  154.9405 C.3     1  UNL1        0.1866
     34 O         136.0909  138.8360  154.9390 O.3     1  UNL1       -0.3758
     35 H         135.5099  139.5120  154.5562 H       1  UNL1        0.2110
@<TRIPOS>BOND
     1    33    32    1
     2    33    34    1
     3    33    28    1
     4    28    29    2
     5    28    30   am
     6    30     1    1
     7     1     2    1
     8     2     3    1
     9     3     4    1
    10     3     5    1
    11     3     6    1
    12     6     7    1
    13     7     8   ar
    14     8     9   ar
    15     9    13    1
    16    13    14   ar
    17    14    15   ar
    18    15    16   ar
    19    16    17    1
    20    16    18   ar
    21    18    19   ar
    22    19    20    1
    23     9    10   ar
    24    10    21    1
    25    21    22   ar
    26    22    23   ar
    27    23    24   ar
    28    24    25    1
    29    24    26   ar
    30    26    27   ar
    31    10    11   ar
    32    11    12   ar
    33    12     1    1
    34    12     7   ar
    35    19    13   ar
    36    27    21   ar
    37    34    35    1
    38    30    31    1
@<TRIPOS>MOLECULE
*****
 35 38 0 0 0
SMALL
GASTEIGER

@<TRIPOS>ATOM
      1 C         138.5646  140.8270  164.2090 C.3     1  UNL1        0.1021
      2 C         138.2422  139.9398  165.3747 C.3     1  UNL1        0.0643
      3 C         138.4579  138.4589  165.2724 C.3     1  UNL1        0.1368
      4 C         137.9312  138.5493  166.6740 C.3     1  UNL1        0.0437
      5 C         138.4907  137.0094  165.6569 C.3     1  UNL1        0.0437
      6 O         138.9960  137.8652  164.0044 O.3     1  UNL1       -0.4676
      7 C         139.3184  138.7524  162.8387 C.ar    1  UNL1        0.2219
      8 N         139.8566  138.1587  161.5706 N.ar    1  UNL1       -0.2119
      9 C         140.1790  139.0458  160.4048 C.ar    1  UNL1        0.0851
     10 C         139.9632  140.5267  160.5071 C.ar    1  UNL1        0.0177
     11 C         139.4251  141.1204  161.7751 C.ar    1  UNL1        0.0034
     12 C         139.1027  140.2333  162.9409 C.ar    1  UNL1        0.0488
     13 C         140.7171  138.4521  159.1367 C.ar    1  UNL1        0.0284
     14 C         139.7837  138.1106  158.0133 C.ar    1  UNL1        0.0032
     15 C         140.3218  137.5170  156.7453 C.ar    1  UNL1        0.0115
     16 C         141.7934  137.2648  156.6007 C.ar    1  UNL1        0.0585
     17 CL        142.3316  136.6711  155.3326 Cl      1  UNL1       -0.0822
     18 C         142.7268  137.6063  157.7241 C.ar    1  UNL1        0.0228
     19 C         142.1887  138.2000  158.9921 C.ar    1  UNL1        0.0599
     20 CL        143.1221  138.5416  160.1156 Cl      1  UNL1       -0.0822
     21 C         140.2856  141.4139  159.3413 C.ar    1  UNL1        0.0015
     22 C         141.6841  141.9212  159.1491 C.ar    1  UNL1        0.0009
     23 C         142.0066  142.8083  157.9834 C.ar    1  UNL1        0.0114
     24 C         140.9305  143.1882  157.0098 C.ar    1  UNL1        0.0577
     25 CL        141.2530  144.0753  155.8440 Cl      1  UNL1       -0.0822
     26 C         139.5321  142.6808  157.2020 C.ar    1  UNL1        0.0114
     27 C         139.2096  141.7937  158.3678 C.ar    1  UNL1        0.0009
     28 C         139.4602  143.1967  164.7855 C.2     1  UNL1        0.2495
     29 O         140.7873  142.6046  165.1575 O.2     1  UNL1       -0.2725
     30 N         138.3489  142.3079  164.3112 N.am    1  UNL1       -0.3000
     31 H         137.4779  142.6964  164.0671 H       1  UNL1        0.1498
     32 C         138.3448  145.2327  165.9521 C.3     1  UNL1        0.0417
     33 C         139.2444  144.6775  164.8878 C.3     1  UNL1        0.1866
     34 O         139.9283  145.6033  163.9259 O.3     1  UNL1       -0.3758
     35 H         139.6831  146.5195  164.1292 H       1  UNL1        0.2110
@<TRIPOS>BOND
     1    33    32    1
     2    33    34    1
     3    33    28    1
     4    28    29    2
     5    28    30   am
     6    30     1    1
     7     1     2    1
     8     2     3    1
     9     3     4    1
    10     3     5    1
    11     3     6    1
    12     6     7    1
    13     7     8   ar
    14     8     9   ar
    15     9    13    1
    16    13    14   ar
    17    14    15   ar
    18    15    16   ar
    19    16    17    1
    20    16    18   ar
    21    18    19   ar
    22    19    20    1
    23     9    10   ar
    24    10    21    1
    25    21    22   ar
    26    22    23   ar
    27    23    24   ar
    28    24    25    1
    29    24    26   ar
    30    26    27   ar
    31    10    11   ar
    32    11    12   ar
    33    12     1    1
    34    12     7   ar
    35    19    13   ar
    36    27    21   ar
    37    34    35    1
    38    30    31    1
@<TRIPOS>MOLECULE
*****
 35 38 0 0 0
SMALL
GASTEIGER

@<TRIPOS>ATOM
      1 C         143.5866  139.8260  156.1686 C.3     1  UNL1        0.1021
      2 C         144.3140  140.4383  155.0084 C.3     1  UNL1        0.0643
      3 C         145.2016  141.6282  155.2232 C.3     1  UNL1        0.1368
      4 C         145.3699  141.4412  153.7444 C.3     1  UNL1        0.0437
      5 C         146.1477  142.7532  154.9243 C.3     1  UNL1        0.0437
      6 O         145.3619  142.2059  156.5981 O.3     1  UNL1       -0.4676
      7 C         144.6345  141.5937  157.7583 C.ar    1  UNL1        0.2219
      8 N         144.7948  142.1714  159.1333 N.ar    1  UNL1       -0.2119
      9 C         144.0674  141.5592  160.2935 C.ar    1  UNL1        0.0851
     10 C         143.1797  140.3692  160.0787 C.ar    1  UNL1        0.0177
     11 C         143.0195  139.7915  158.7038 C.ar    1  UNL1        0.0034
     12 C         143.7469  140.4037  157.5435 C.ar    1  UNL1        0.0488
     13 C         144.2276  142.1369  161.6685 C.ar    1  UNL1        0.0284
     14 C         145.2308  141.5496  162.6166 C.ar    1  UNL1        0.0032
     15 C         145.3910  142.1274  163.9915 C.ar    1  UNL1        0.0115
     16 C         144.5480  143.2923  164.4184 C.ar    1  UNL1        0.0585
     17 CL        144.7083  143.8700  165.7935 Cl      1  UNL1       -0.0822
     18 C         143.5449  143.8796  163.4704 C.ar    1  UNL1        0.0228
     19 C         143.3847  143.3018  162.0955 C.ar    1  UNL1        0.0599
     20 CL        142.3815  143.8891  161.1474 Cl      1  UNL1       -0.0822
     21 C         142.4523  139.7570  161.2390 C.ar    1  UNL1        0.0015
     22 C         141.1285  140.3136  161.6724 C.ar    1  UNL1        0.0009
     23 C         140.4011  139.7014  162.8325 C.ar    1  UNL1        0.0114
     24 C         140.9975  138.5327  163.5594 C.ar    1  UNL1        0.0577
     25 CL        140.2701  137.9205  164.7197 Cl      1  UNL1       -0.0822
     26 C         142.3214  137.9761  163.1261 C.ar    1  UNL1        0.0114
     27 C         143.0487  138.5883  161.9659 C.ar    1  UNL1        0.0009
     28 C         143.3019  137.2915  155.6736 C.2     1  UNL1        0.2495
     29 O         144.7925  137.1368  155.6082 O.2     1  UNL1       -0.2725
     30 N         142.6990  138.6361  155.9538 N.am    1  UNL1       -0.3000
     31 H         141.7207  138.7376  155.9968 H       1  UNL1        0.1498
     32 C         142.8437  135.0031  154.5320 C.3     1  UNL1        0.0417
     33 C         142.4142  136.1016  155.4589 C.3     1  UNL1        0.1866
     34 O         141.0972  136.0101  156.1709 O.3     1  UNL1       -0.3758
     35 H         140.6520  135.1848  155.9225 H       1  UNL1        0.2110
@<TRIPOS>BOND
     1    33    32    1
     2    33    34    1
     3    33    28    1
     4    28    29    2
     5    28    30   am
     6    30     1    1
     7     1     2    1
     8     2     3    1
     9     3     4    1
    10     3     5    1
    11     3     6    1
    12     6     7    1
    13     7     8   ar
    14     8     9   ar
    15     9    13    1
    16    13    14   ar
    17    14    15   ar
    18    15    16   ar
    19    16    17    1
    20    16    18   ar
    21    18    19   ar
    22    19    20    1
    23     9    10   ar
    24    10    21    1
    25    21    22   ar
    26    22    23   ar
    27    23    24   ar
    28    24    25    1
    29    24    26   ar
    30    26    27   ar
    31    10    11   ar
    32    11    12   ar
    33    12     1    1
    34    12     7   ar
    35    19    13   ar
    36    27    21   ar
    37    34    35    1
    38    30    31    1
@<TRIPOS>MOLECULE
*****
 35 38 0 0 0
SMALL
GASTEIGER

@<TRIPOS>ATOM
      1 C         139.9947  137.7245  156.3013 C.3     1  UNL1        0.1021
      2 C         139.2641  137.9172  155.0056 C.3     1  UNL1        0.0643
      3 C         138.2007  138.9692  154.8934 C.3     1  UNL1        0.1368
      4 C         138.1592  138.4076  153.5031 C.3     1  UNL1        0.0437
      5 C         137.1230  139.8261  154.2983 C.3     1  UNL1        0.0437
      6 O         137.8680  139.8285  156.0769 O.3     1  UNL1       -0.4676
      7 C         138.5985  139.6358  157.3727 C.ar    1  UNL1        0.2219
      8 N         138.2658  140.4951  158.5564 N.ar    1  UNL1       -0.2119
      9 C         138.9963  140.3023  159.8521 C.ar    1  UNL1        0.0851
     10 C         140.0597  139.2503  159.9643 C.ar    1  UNL1        0.0177
     11 C         140.3925  138.3911  158.7808 C.ar    1  UNL1        0.0034
     12 C         139.6619  138.5838  157.4849 C.ar    1  UNL1        0.0488
     13 C         138.6636  141.1616  161.0358 C.ar    1  UNL1        0.0284
     14 C         137.6530  140.6947  162.0411 C.ar    1  UNL1        0.0032
     15 C         137.3203  141.5540  163.2247 C.ar    1  UNL1        0.0115
     16 C         137.9981  142.8801  163.4029 C.ar    1  UNL1        0.0585
     17 CL        137.6653  143.7394  164.5866 Cl      1  UNL1       -0.0822
     18 C         139.0087  143.3470  162.3976 C.ar    1  UNL1        0.0228
     19 C         139.3414  142.4878  161.2141 C.ar    1  UNL1        0.0599
     20 CL        140.3521  142.9547  160.2087 Cl      1  UNL1       -0.0822
     21 C         140.7903  139.0576  161.2602 C.ar    1  UNL1        0.0015
     22 C         140.3454  137.9953  162.2212 C.ar    1  UNL1        0.0009
     23 C         141.0759  137.8025  163.5170 C.ar    1  UNL1        0.0114
     24 C         142.2513  138.6722  163.8518 C.ar    1  UNL1        0.0577
     25 CL        142.9819  138.4795  165.1477 Cl      1  UNL1       -0.0822
     26 C         142.6962  139.7345  162.8908 C.ar    1  UNL1        0.0114
     27 C         141.9657  139.9273  161.5950 C.ar    1  UNL1        0.0009
     28 C         142.4569  136.9687  155.9603 C.2     1  UNL1        0.2495
     29 O         142.7924  138.3170  155.3948 O.2     1  UNL1       -0.2725
     30 N         141.0580  136.6725  156.4135 N.am    1  UNL1       -0.3000
     31 H         140.8378  135.7877  156.7847 H       1  UNL1        0.1498
     32 C         143.2880  134.7034  156.9234 C.3     1  UNL1        0.0417
     33 C         143.5202  135.9167  156.0725 C.3     1  UNL1        0.1866
     34 O         144.8157  136.0781  155.3339 O.3     1  UNL1       -0.3758
     35 H         145.3875  135.3154  155.5136 H       1  UNL1        0.2110
@<TRIPOS>BOND
     1    33    32    1
     2    33    34    1
     3    33    28    1
     4    28    29    2
     5    28    30   am
     6    30     1    1
     7     1     2    1
     8     2     3    1
     9     3     4    1
    10     3     5    1
    11     3     6    1
    12     6     7    1
    13     7     8   ar
    14     8     9   ar
    15     9    13    1
    16    13    14   ar
    17    14    15   ar
    18    15    16   ar
    19    16    17    1
    20    16    18   ar
    21    18    19   ar
    22    19    20    1
    23     9    10   ar
    24    10    21    1
    25    21    22   ar
    26    22    23   ar
    27    23    24   ar
    28    24    25    1
    29    24    26   ar
    30    26    27   ar
    31    10    11   ar
    32    11    12   ar
    33    12     1    1
    34    12     7   ar
    35    19    13   ar
    36    27    21   ar
    37    34    35    1
    38    30    31    1
@<TRIPOS>MOLECULE
*****
 35 38 0 0 0
SMALL
GASTEIGER

@<TRIPOS>ATOM
      1 C         139.8923  140.9104  156.8066 C.3     1  UNL1        0.1021
      2 C         138.7455  141.0612  155.8516 C.3     1  UNL1        0.0643
      3 C         137.3378  140.8740  156.3346 C.3     1  UNL1        0.1368
      4 C         137.0786  141.1845  154.8901 C.3     1  UNL1        0.0437
      5 C         135.8400  140.7946  156.3158 C.3     1  UNL1        0.0437
      6 O         137.0769  140.5360  157.7725 O.3     1  UNL1       -0.4676
      7 C         138.2237  140.3852  158.7275 C.ar    1  UNL1        0.2219
      8 N         137.9628  140.0472  160.1654 N.ar    1  UNL1       -0.2119
      9 C         139.1096  139.8963  161.1204 C.ar    1  UNL1        0.0851
     10 C         140.5173  140.0835  160.6375 C.ar    1  UNL1        0.0177
     11 C         140.7783  140.4215  159.1996 C.ar    1  UNL1        0.0034
     12 C         139.6314  140.5724  158.2445 C.ar    1  UNL1        0.0488
     13 C         138.8487  139.5583  162.5584 C.ar    1  UNL1        0.0284
     14 C         138.9789  138.1408  163.0312 C.ar    1  UNL1        0.0032
     15 C         138.7180  137.8028  164.4691 C.ar    1  UNL1        0.0115
     16 C         138.3269  138.8824  165.4343 C.ar    1  UNL1        0.0585
     17 CL        138.0660  138.5444  166.8723 Cl      1  UNL1       -0.0822
     18 C         138.1967  140.2999  164.9615 C.ar    1  UNL1        0.0228
     19 C         138.4576  140.6379  163.5236 C.ar    1  UNL1        0.0599
     20 CL        138.3274  142.0555  163.0507 Cl      1  UNL1       -0.0822
     21 C         141.6642  139.9327  161.5926 C.ar    1  UNL1        0.0015
     22 C         142.0665  141.0817  162.4688 C.ar    1  UNL1        0.0009
     23 C         143.2133  140.9309  163.4238 C.ar    1  UNL1        0.0114
     24 C         143.9577  139.6311  163.5026 C.ar    1  UNL1        0.0577
     25 CL        145.1046  139.4803  164.4577 Cl      1  UNL1       -0.0822
     26 C         143.5554  138.4821  162.6264 C.ar    1  UNL1        0.0114
     27 C         142.4086  138.6329  161.6713 C.ar    1  UNL1        0.0009
     28 C         141.9355  142.4554  156.3726 C.2     1  UNL1        0.2495
     29 O         141.1631  143.6262  156.9045 O.2     1  UNL1       -0.2725
     30 N         141.3001  141.0976  156.3237 N.am    1  UNL1       -0.3000
     31 H         141.8070  140.3292  155.9746 H       1  UNL1        0.1498
     32 C         144.3471  141.5410  156.0594 C.3     1  UNL1        0.0417
     33 C         143.3432  142.6426  155.8897 C.3     1  UNL1        0.1866
     34 O         143.7471  143.9313  155.2370 O.3     1  UNL1       -0.3758
     35 H         144.6830  143.8873  154.9861 H       1  UNL1        0.2110
@<TRIPOS>BOND
     1    33    32    1
     2    33    34    1
     3    33    28    1
     4    28    29    2
     5    28    30   am
     6    30     1    1
     7     1     2    1
     8     2     3    1
     9     3     4    1
    10     3     5    1
    11     3     6    1
    12     6     7    1
    13     7     8   ar
    14     8     9   ar
    15     9    13    1
    16    13    14   ar
    17    14    15   ar
    18    15    16   ar
    19    16    17    1
    20    16    18   ar
    21    18    19   ar
    22    19    20    1
    23     9    10   ar
    24    10    21    1
    25    21    22   ar
    26    22    23   ar
    27    23    24   ar
    28    24    25    1
    29    24    26   ar
    30    26    27   ar
    31    10    11   ar
    32    11    12   ar
    33    12     1    1
    34    12     7   ar
    35    19    13   ar
    36    27    21   ar
    37    34    35    1
    38    30    31    1
@<TRIPOS>MOLECULE
*****
 35 38 0 0 0
SMALL
GASTEIGER

@<TRIPOS>ATOM
      1 C         137.4795  143.1701  156.0682 C.3     1  UNL1        0.1021
      2 C         136.5999  142.5965  154.9971 C.3     1  UNL1        0.0643
      3 C         136.0027  141.2313  155.1683 C.3     1  UNL1        0.1368
      4 C         135.4458  141.5924  153.8232 C.3     1  UNL1        0.0437
      5 C         135.2120  139.9914  154.8723 C.3     1  UNL1        0.0437
      6 O         136.2849  140.4396  156.4107 O.3     1  UNL1       -0.4676
      7 C         137.1645  141.0132  157.4818 C.ar    1  UNL1        0.2219
      8 N         137.4468  140.2215  158.7243 N.ar    1  UNL1       -0.2119
      9 C         138.3263  140.7951  159.7954 C.ar    1  UNL1        0.0851
     10 C         138.9236  142.1604  159.6242 C.ar    1  UNL1        0.0177
     11 C         138.6413  142.9521  158.3818 C.ar    1  UNL1        0.0034
     12 C         137.7617  142.3785  157.3106 C.ar    1  UNL1        0.0488
     13 C         138.6086  140.0035  161.0379 C.ar    1  UNL1        0.0284
     14 C         137.8270  140.2691  162.2902 C.ar    1  UNL1        0.0032
     15 C         138.1093  139.4775  163.5326 C.ar    1  UNL1        0.0115
     16 C         139.1733  138.4202  163.5226 C.ar    1  UNL1        0.0585
     17 CL        139.4556  137.6285  164.7651 Cl      1  UNL1       -0.0822
     18 C         139.9549  138.1545  162.2703 C.ar    1  UNL1        0.0228
     19 C         139.6726  138.9462  161.0279 C.ar    1  UNL1        0.0599
     20 CL        140.4542  138.6805  159.7755 Cl      1  UNL1       -0.0822
     21 C         139.8032  142.7340  160.6954 C.ar    1  UNL1        0.0015
     22 C         141.2634  142.3928  160.7293 C.ar    1  UNL1        0.0009
     23 C         142.1430  142.9663  161.8004 C.ar    1  UNL1        0.0114
     24 C         141.5623  143.8811  162.8376 C.ar    1  UNL1        0.0577
     25 CL        142.4419  144.4547  163.9089 Cl      1  UNL1       -0.0822
     26 C         140.1020  144.2223  162.8038 C.ar    1  UNL1        0.0114
     27 C         139.2224  143.6488  161.7326 C.ar    1  UNL1        0.0009
     28 C         139.4579  144.6842  155.3312 C.2     1  UNL1        0.2495
     29 O         140.2419  143.4677  154.9367 O.2     1  UNL1       -0.2725
     30 N         138.0767  144.5354  155.8970 N.am    1  UNL1       -0.3000
     31 H         137.5622  145.3338  156.1559 H       1  UNL1        0.1498
     32 C         140.7310  146.4163  153.8720 C.3     1  UNL1        0.0417
     33 C         140.0552  146.0495  155.1600 C.3     1  UNL1        0.1866
     34 O         139.9767  147.0479  156.2766 O.3     1  UNL1       -0.3758
     35 H         140.4079  147.8728  156.0036 H       1  UNL1        0.2110
@<TRIPOS>BOND
     1    33    32    1
     2    33    34    1
     3    33    28    1
     4    28    29    2
     5    28    30   am
     6    30     1    1
     7     1     2    1
     8     2     3    1
     9     3     4    1
    10     3     5    1
    11     3     6    1
    12     6     7    1
    13     7     8   ar
    14     8     9   ar
    15     9    13    1
    16    13    14   ar
    17    14    15   ar
    18    15    16   ar
    19    16    17    1
    20    16    18   ar
    21    18    19   ar
    22    19    20    1
    23     9    10   ar
    24    10    21    1
    25    21    22   ar
    26    22    23   ar
    27    23    24   ar
    28    24    25    1
    29    24    26   ar
    30    26    27   ar
    31    10    11   ar
    32    11    12   ar
    33    12     1    1
    34    12     7   ar
    35    19    13   ar
    36    27    21   ar
    37    34    35    1
    38    30    31    1
