@<TRIPOS>MOLECULE
*****
 29 31 0 0 0
SMALL
GASTEIGER

@<TRIPOS>ATOM
      1 C         142.5763  142.8213  164.3727 C.ar    1  UNL1        0.1409
      2 N         141.6354  143.9697  164.1587 N.ar    1  UNL1       -0.1986
      3 C         141.9531  145.0189  163.1348 C.ar    1  UNL1        0.2181
      4 N         143.2117  144.9195  162.3248 N.ar    1  UNL1       -0.2120
      5 C         144.1526  143.7711  162.5388 C.ar    1  UNL1        0.1091
      6 C         143.8350  142.7220  163.5627 C.ar    1  UNL1        0.1040
      7 C         144.7759  141.5735  163.7766 C.2     1  UNL1        0.2470
      8 N         146.2546  141.7782  163.6305 N.am    1  UNL1       -0.3252
      9 O         144.2380  140.2203  164.1367 O.2     1  UNL1       -0.2702
     10 H         146.6076  142.6664  163.3942 H       1  UNL1        0.1453
     11 H         146.8721  141.0245  163.7709 H       1  UNL1        0.1453
     12 N         142.2586  141.7721  165.3965 N.pl3   1  UNL1       -0.2977
     13 H         142.1695  140.8301  165.1247 H       1  UNL1        0.1536
     14 C         144.2465  142.5425  170.1352 C.3     1  UNL1        0.0311
     15 C         143.0706  142.5435  169.2039 C.ar    1  UNL1       -0.0206
     16 C         141.7129  142.9306  169.7105 C.ar    1  UNL1       -0.0042
     17 C         140.5371  142.9315  168.7791 C.ar    1  UNL1        0.0009
     18 C         140.7190  142.5454  167.3412 C.ar    1  UNL1        0.0146
     19 C         142.0767  142.1583  166.8346 C.ar    1  UNL1        0.0491
     20 C         143.2525  142.1573  167.7659 C.ar    1  UNL1        0.0104
     21 N         141.0122  146.1673  162.9208 N.pl3   1  UNL1       -0.3016
     22 H         141.2033  147.0427  163.3287 H       1  UNL1        0.1497
     23 C         139.7803  145.9819  162.0853 C.3     1  UNL1        0.1052
     24 C         138.9948  144.7075  162.1798 C.3     1  UNL1        0.0739
     25 C         138.1428  144.2807  163.3382 C.3     1  UNL1        0.0189
     26 C         137.5449  142.9455  163.0068 C.3     1  UNL1        0.0185
     27 C         138.0274  142.5471  161.6436 C.3     1  UNL1        0.0686
     28 N         138.9235  143.6360  161.1325 N.3     1  UNL1       -0.2972
     29 H         138.5420  144.0213  160.2686 H       1  UNL1        0.1233
@<TRIPOS>BOND
     1    14    15    1
     2    15    16   ar
     3    16    17   ar
     4    17    18   ar
     5    18    19   ar
     6    19    12    1
     7    12     1    1
     8     1     2   ar
     9     2     3   ar
    10     3    21    1
    11    21    23    1
    12    24    23    1
    13    24    25    1
    14    25    26    1
    15    26    27    1
    16    27    28    1
    17     3     4   ar
    18     4     5   ar
    19     5     6   ar
    20     6     7    1
    21     7     8   am
    22     7     9    2
    23    19    20   ar
    24    20    15   ar
    25     6     1   ar
    26    28    24    1
    27    12    13    1
    28    21    22    1
    29    28    29    1
    30     8    10    1
    31     8    11    1
@<TRIPOS>MOLECULE
*****
 29 31 0 0 0
SMALL
GASTEIGER

@<TRIPOS>ATOM
      1 C         142.8515  143.1452  164.5897 C.ar    1  UNL1        0.1409
      2 N         141.8667  144.2486  164.3392 N.ar    1  UNL1       -0.1986
      3 C         141.8461  144.9486  163.0127 C.ar    1  UNL1        0.2181
      4 N         142.8103  144.5454  161.9367 N.ar    1  UNL1       -0.2120
      5 C         143.7951  143.4420  162.1873 C.ar    1  UNL1        0.1091
      6 C         143.8158  142.7420  163.5137 C.ar    1  UNL1        0.1040
      7 C         144.8006  141.6387  163.7642 C.2     1  UNL1        0.2470
      8 N         146.2549  141.8487  163.4628 N.am    1  UNL1       -0.3252
      9 O         144.3311  140.3253  164.3162 O.2     1  UNL1       -0.2702
     10 H         146.5630  142.7107  163.1005 H       1  UNL1        0.1453
     11 H         146.9013  141.1245  163.6272 H       1  UNL1        0.1453
     12 N         142.8722  142.4452  165.9161 N.pl3   1  UNL1       -0.2977
     13 H         143.6615  142.5196  166.4997 H       1  UNL1        0.1536
     14 C         138.8205  139.4080  164.7503 C.3     1  UNL1        0.0311
     15 C         139.6643  140.1132  165.7704 C.ar    1  UNL1       -0.0206
     16 C         139.3260  140.0051  167.2278 C.ar    1  UNL1       -0.0042
     17 C         140.1698  140.7103  168.2479 C.ar    1  UNL1        0.0009
     18 C         141.3518  141.5237  167.8107 C.ar    1  UNL1        0.0146
     19 C         141.6901  141.6318  166.3534 C.ar    1  UNL1        0.0491
     20 C         140.8463  140.9266  165.3332 C.ar    1  UNL1        0.0104
     21 N         140.8612  146.0519  162.7621 N.pl3   1  UNL1       -0.3016
     22 H         141.1083  146.9854  162.9542 H       1  UNL1        0.1497
     23 C         139.4999  145.7331  162.2189 C.3     1  UNL1        0.1052
     24 C         138.7354  144.5583  162.7533 C.3     1  UNL1        0.0739
     25 C         138.3659  144.3258  164.1884 C.3     1  UNL1        0.0189
     26 C         137.6083  143.0337  164.2685 C.3     1  UNL1        0.0185
     27 C         137.5096  142.4676  162.8830 C.3     1  UNL1        0.0686
     28 N         138.2062  143.4099  161.9465 N.3     1  UNL1       -0.2972
     29 H         137.5476  143.7526  161.2471 H       1  UNL1        0.1233
@<TRIPOS>BOND
     1    14    15    1
     2    15    16   ar
     3    16    17   ar
     4    17    18   ar
     5    18    19   ar
     6    19    12    1
     7    12     1    1
     8     1     2   ar
     9     2     3   ar
    10     3    21    1
    11    21    23    1
    12    24    23    1
    13    24    25    1
    14    25    26    1
    15    26    27    1
    16    27    28    1
    17     3     4   ar
    18     4     5   ar
    19     5     6   ar
    20     6     7    1
    21     7     8   am
    22     7     9    2
    23    19    20   ar
    24    20    15   ar
    25     6     1   ar
    26    28    24    1
    27    12    13    1
    28    21    22    1
    29    28    29    1
    30     8    10    1
    31     8    11    1
@<TRIPOS>MOLECULE
*****
 29 31 0 0 0
SMALL
GASTEIGER

@<TRIPOS>ATOM
      1 C         139.4929  141.8491  164.6501 C.ar    1  UNL1        0.1409
      2 N         139.7845  140.3779  164.6723 N.ar    1  UNL1       -0.1986
      3 C         138.8866  139.4242  163.9411 C.ar    1  UNL1        0.2181
      4 N         137.6972  139.9418  163.1879 N.ar    1  UNL1       -0.2120
      5 C         137.4056  141.4130  163.1658 C.ar    1  UNL1        0.1091
      6 C         138.3034  142.3667  163.8968 C.ar    1  UNL1        0.1040
      7 C         138.0118  143.8379  163.8747 C.2     1  UNL1        0.2470
      8 N         137.5657  144.4950  162.6023 N.am    1  UNL1       -0.3252
      9 O         138.1663  144.6520  165.1251 O.2     1  UNL1       -0.2702
     10 H         137.4643  143.9607  161.7816 H       1  UNL1        0.1453
     11 H         137.3743  145.4606  162.5877 H       1  UNL1        0.1453
     12 N         140.3907  142.8027  165.3812 N.pl3   1  UNL1       -0.2977
     13 H         140.1510  143.1093  166.2855 H       1  UNL1        0.1536
     14 C         145.3478  142.0188  164.0349 C.3     1  UNL1        0.0311
     15 C         144.1322  142.8973  164.0613 C.ar    1  UNL1       -0.0206
     16 C         144.1795  144.2621  163.4409 C.ar    1  UNL1       -0.0042
     17 C         142.9639  145.1405  163.4674 C.ar    1  UNL1        0.0009
     18 C         141.7010  144.6541  164.1141 C.ar    1  UNL1        0.0146
     19 C         141.6537  143.2892  164.7344 C.ar    1  UNL1        0.0491
     20 C         142.8693  142.4108  164.7080 C.ar    1  UNL1        0.0104
     21 N         139.1782  137.9530  163.9633 N.pl3   1  UNL1       -0.3016
     22 H         138.4636  137.3064  163.7621 H       1  UNL1        0.1497
     23 C         140.5587  137.4669  164.2919 C.3     1  UNL1        0.1052
     24 C         141.7039  137.7862  163.3772 C.3     1  UNL1        0.0739
     25 C         142.8769  138.6616  163.7053 C.3     1  UNL1        0.0189
     26 C         143.7750  138.7025  162.5046 C.3     1  UNL1        0.0185
     27 C         143.1570  137.8525  161.4343 C.3     1  UNL1        0.0686
     28 N         141.8770  137.2861  161.9736 N.3     1  UNL1       -0.2972
     29 H         141.9216  136.2671  161.9722 H       1  UNL1        0.1233
@<TRIPOS>BOND
     1    14    15    1
     2    15    16   ar
     3    16    17   ar
     4    17    18   ar
     5    18    19   ar
     6    19    12    1
     7    12     1    1
     8     1     2   ar
     9     2     3   ar
    10     3    21    1
    11    21    23    1
    12    24    23    1
    13    24    25    1
    14    25    26    1
    15    26    27    1
    16    27    28    1
    17     3     4   ar
    18     4     5   ar
    19     5     6   ar
    20     6     7    1
    21     7     8   am
    22     7     9    2
    23    19    20   ar
    24    20    15   ar
    25     6     1   ar
    26    28    24    1
    27    12    13    1
    28    21    22    1
    29    28    29    1
    30     8    10    1
    31     8    11    1
@<TRIPOS>MOLECULE
*****
 29 31 0 0 0
SMALL
GASTEIGER

@<TRIPOS>ATOM
      1 C         142.9700  142.6143  164.0709 C.ar    1  UNL1        0.1409
      2 N         142.0535  143.8016  164.0516 N.ar    1  UNL1       -0.1986
      3 C         142.0812  144.7518  162.8912 C.ar    1  UNL1        0.2181
      4 N         143.0255  144.5147  161.7502 N.ar    1  UNL1       -0.2120
      5 C         143.9420  143.3275  161.7694 C.ar    1  UNL1        0.1091
      6 C         143.9143  142.3773  162.9297 C.ar    1  UNL1        0.1040
      7 C         144.8309  141.1900  162.9489 C.2     1  UNL1        0.2470
      8 N         144.6819  140.1108  161.9179 N.am    1  UNL1       -0.3252
      9 O         145.8964  141.0821  163.9992 O.2     1  UNL1       -0.2702
     10 H         143.9826  140.1817  161.2286 H       1  UNL1        0.1453
     11 H         145.2835  139.3316  161.9306 H       1  UNL1        0.1453
     12 N         142.9423  141.6642  165.2312 N.pl3   1  UNL1       -0.2977
     13 H         143.5192  141.8246  166.0127 H       1  UNL1        0.1536
     14 C         138.1806  139.6180  165.6051 C.3     1  UNL1        0.0311
     15 C         139.6548  139.4465  165.3878 C.ar    1  UNL1       -0.0206
     16 C         140.2225  138.0803  165.1401 C.ar    1  UNL1       -0.0042
     17 C         141.6967  137.9087  164.9228 C.ar    1  UNL1        0.0009
     18 C         142.6033  139.1033  164.9531 C.ar    1  UNL1        0.0146
     19 C         142.0357  140.4695  165.2008 C.ar    1  UNL1        0.0491
     20 C         140.5615  140.6411  165.4181 C.ar    1  UNL1        0.0104
     21 N         141.1646  145.9390  162.8720 N.pl3   1  UNL1       -0.3016
     22 H         141.4909  146.8177  163.1733 H       1  UNL1        0.1497
     23 C         139.7510  145.7875  162.3937 C.3     1  UNL1        0.1052
     24 C         138.9147  144.6397  162.8767 C.3     1  UNL1        0.0739
     25 C         138.5202  144.3736  164.2992 C.3     1  UNL1        0.0189
     26 C         137.6878  143.1260  164.3238 C.3     1  UNL1        0.0185
     27 C         137.5679  142.6210  162.9164 C.3     1  UNL1        0.0686
     28 N         138.3262  143.5566  162.0221 N.3     1  UNL1       -0.2972
     29 H         137.6947  143.9643  161.3327 H       1  UNL1        0.1233
@<TRIPOS>BOND
     1    14    15    1
     2    15    16   ar
     3    16    17   ar
     4    17    18   ar
     5    18    19   ar
     6    19    12    1
     7    12     1    1
     8     1     2   ar
     9     2     3   ar
    10     3    21    1
    11    21    23    1
    12    24    23    1
    13    24    25    1
    14    25    26    1
    15    26    27    1
    16    27    28    1
    17     3     4   ar
    18     4     5   ar
    19     5     6   ar
    20     6     7    1
    21     7     8   am
    22     7     9    2
    23    19    20   ar
    24    20    15   ar
    25     6     1   ar
    26    28    24    1
    27    12    13    1
    28    21    22    1
    29    28    29    1
    30     8    10    1
    31     8    11    1
@<TRIPOS>MOLECULE
*****
 29 31 0 0 0
SMALL
GASTEIGER

@<TRIPOS>ATOM
      1 C         141.7675  142.7259  164.5872 C.ar    1  UNL1        0.1409
      2 N         140.3562  142.2210  164.6461 N.ar    1  UNL1       -0.1986
      3 C         139.2332  143.0718  164.1312 C.ar    1  UNL1        0.2181
      4 N         139.5214  144.4274  163.5575 N.ar    1  UNL1       -0.2120
      5 C         140.9327  144.9323  163.4986 C.ar    1  UNL1        0.1091
      6 C         142.0557  144.0815  164.0134 C.ar    1  UNL1        0.1040
      7 C         143.4669  144.5864  163.9545 C.2     1  UNL1        0.2470
      8 N         143.9295  145.3836  162.7712 N.am    1  UNL1       -0.3252
      9 O         144.4156  144.2941  165.0791 O.2     1  UNL1       -0.2702
     10 H         143.3069  145.5755  162.0331 H       1  UNL1        0.1453
     11 H         144.8558  145.7150  162.7325 H       1  UNL1        0.1453
     12 N         142.8905  141.8751  165.1020 N.pl3   1  UNL1       -0.2977
     13 H         143.6478  141.6512  164.5142 H       1  UNL1        0.1536
     14 C         143.1736  142.7616  170.2142 C.3     1  UNL1        0.0311
     15 C         143.0012  141.8088  169.0685 C.ar    1  UNL1       -0.0206
     16 C         142.7979  140.3465  169.3334 C.ar    1  UNL1       -0.0042
     17 C         142.6255  139.3937  168.1878 C.ar    1  UNL1        0.0009
     18 C         142.6563  139.9032  166.7773 C.ar    1  UNL1        0.0146
     19 C         142.8596  141.3655  166.5125 C.ar    1  UNL1        0.0491
     20 C         143.0320  142.3183  167.6581 C.ar    1  UNL1        0.0104
     21 N         137.8219  142.5669  164.1901 N.pl3   1  UNL1       -0.3016
     22 H         137.2214  142.8669  164.9102 H       1  UNL1        0.1497
     23 C         137.3256  141.6048  163.1516 C.3     1  UNL1        0.1052
     24 C         137.8659  140.2063  163.1057 C.3     1  UNL1        0.0739
     25 C         137.8232  139.2829  161.9244 C.3     1  UNL1        0.0189
     26 C         138.4747  137.9915  162.3217 C.3     1  UNL1        0.0185
     27 C         138.9201  138.1167  163.7485 C.3     1  UNL1        0.0686
     28 N         138.5439  139.4855  164.2331 N.3     1  UNL1       -0.2972
     29 H         139.3811  139.9949  164.5158 H       1  UNL1        0.1233
@<TRIPOS>BOND
     1    14    15    1
     2    15    16   ar
     3    16    17   ar
     4    17    18   ar
     5    18    19   ar
     6    19    12    1
     7    12     1    1
     8     1     2   ar
     9     2     3   ar
    10     3    21    1
    11    21    23    1
    12    24    23    1
    13    24    25    1
    14    25    26    1
    15    26    27    1
    16    27    28    1
    17     3     4   ar
    18     4     5   ar
    19     5     6   ar
    20     6     7    1
    21     7     8   am
    22     7     9    2
    23    19    20   ar
    24    20    15   ar
    25     6     1   ar
    26    28    24    1
    27    12    13    1
    28    21    22    1
    29    28    29    1
    30     8    10    1
    31     8    11    1
@<TRIPOS>MOLECULE
*****
 29 31 0 0 0
SMALL
GASTEIGER

@<TRIPOS>ATOM
      1 C         141.1954  144.1345  163.5094 C.ar    1  UNL1        0.1409
      2 N         142.5720  143.5540  163.6438 N.ar    1  UNL1       -0.1986
      3 C         143.4855  143.5072  162.4549 C.ar    1  UNL1        0.2181
      4 N         143.0225  144.0409  161.1318 N.ar    1  UNL1       -0.2120
      5 C         141.6459  144.6214  160.9974 C.ar    1  UNL1        0.1091
      6 C         140.7324  144.6682  162.1861 C.ar    1  UNL1        0.1040
      7 C         139.3558  145.2487  162.0517 C.2     1  UNL1        0.2470
      8 N         139.1611  146.5643  161.3581 N.am    1  UNL1       -0.3252
      9 O         138.1739  144.5135  162.6110 O.2     1  UNL1       -0.2702
     10 H         139.9368  147.0469  160.9910 H       1  UNL1        0.1453
     11 H         138.2576  146.9453  161.2699 H       1  UNL1        0.1453
     12 N         140.2818  144.1814  164.6981 N.pl3   1  UNL1       -0.2977
     13 H         139.8211  145.0194  164.9322 H       1  UNL1        0.1536
     14 C         138.3581  139.3838  165.2294 C.3     1  UNL1        0.0311
     15 C         139.1083  140.5526  165.7959 C.ar    1  UNL1       -0.0206
     16 C         139.6469  140.4916  167.1946 C.ar    1  UNL1       -0.0042
     17 C         140.3971  141.6605  167.7611 C.ar    1  UNL1        0.0009
     18 C         140.6087  142.8904  166.9289 C.ar    1  UNL1        0.0146
     19 C         140.0702  142.9514  165.5303 C.ar    1  UNL1        0.0491
     20 C         139.3200  141.7825  164.9638 C.ar    1  UNL1        0.0104
     21 N         144.8621  142.9267  162.5893 N.pl3   1  UNL1       -0.3016
     22 H         145.4744  142.9281  161.8184 H       1  UNL1        0.1497
     23 C         145.3059  142.3441  163.8984 C.3     1  UNL1        0.1052
     24 C         144.5848  141.1626  164.4764 C.3     1  UNL1        0.0739
     25 C         144.9341  139.7210  164.2534 C.3     1  UNL1        0.0189
     26 C         143.9530  138.8826  165.0179 C.3     1  UNL1        0.0185
     27 C         142.9973  139.8061  165.7135 C.3     1  UNL1        0.0686
     28 N         143.3877  141.2152  165.3788 N.3     1  UNL1       -0.2972
     29 H         143.6201  141.7221  166.2328 H       1  UNL1        0.1233
@<TRIPOS>BOND
     1    14    15    1
     2    15    16   ar
     3    16    17   ar
     4    17    18   ar
     5    18    19   ar
     6    19    12    1
     7    12     1    1
     8     1     2   ar
     9     2     3   ar
    10     3    21    1
    11    21    23    1
    12    24    23    1
    13    24    25    1
    14    25    26    1
    15    26    27    1
    16    27    28    1
    17     3     4   ar
    18     4     5   ar
    19     5     6   ar
    20     6     7    1
    21     7     8   am
    22     7     9    2
    23    19    20   ar
    24    20    15   ar
    25     6     1   ar
    26    28    24    1
    27    12    13    1
    28    21    22    1
    29    28    29    1
    30     8    10    1
    31     8    11    1
@<TRIPOS>MOLECULE
*****
 29 31 0 0 0
SMALL
GASTEIGER

@<TRIPOS>ATOM
      1 C         141.1168  139.4596  164.1256 C.ar    1  UNL1        0.1409
      2 N         142.4471  139.9962  164.5641 N.ar    1  UNL1       -0.1986
      3 C         143.7035  139.5272  163.8920 C.ar    1  UNL1        0.2181
      4 N         143.6295  138.5216  162.7815 N.ar    1  UNL1       -0.2120
      5 C         142.2992  137.9850  162.3430 C.ar    1  UNL1        0.1091
      6 C         141.0429  138.4539  163.0150 C.ar    1  UNL1        0.1040
      7 C         139.7125  137.9173  162.5765 C.2     1  UNL1        0.2470
      8 N         139.3779  137.8439  161.1162 N.am    1  UNL1       -0.3252
      9 O         138.7169  137.4541  163.5984 O.2     1  UNL1       -0.2702
     10 H         140.0313  138.1479  160.4455 H       1  UNL1        0.1453
     11 H         138.5047  137.4917  160.8284 H       1  UNL1        0.1453
     12 N         139.8604  139.9285  164.7976 N.pl3   1  UNL1       -0.2977
     13 H         139.4812  139.4141  165.5465 H       1  UNL1        0.1536
     14 C         138.6199  144.9203  165.5349 C.3     1  UNL1        0.0311
     15 C         138.5616  143.6773  164.6973 C.ar    1  UNL1       -0.0206
     16 C         137.8246  143.6871  163.3910 C.ar    1  UNL1       -0.0042
     17 C         137.7662  142.4440  162.5534 C.ar    1  UNL1        0.0009
     18 C         138.4448  141.1912  163.0223 C.ar    1  UNL1        0.0146
     19 C         139.1818  141.1814  164.3287 C.ar    1  UNL1        0.0491
     20 C         139.2402  142.4244  165.1662 C.ar    1  UNL1        0.0104
     21 N         145.0338  140.0638  164.3305 N.pl3   1  UNL1       -0.3016
     22 H         145.5002  139.6576  165.0965 H       1  UNL1        0.1497
     23 C         145.6535  141.2194  163.6020 C.3     1  UNL1        0.1052
     24 C         144.9653  142.5521  163.5864 C.3     1  UNL1        0.0739
     25 C         144.3952  143.2641  164.7772 C.3     1  UNL1        0.0189
     26 C         143.8040  144.5589  164.3040 C.3     1  UNL1        0.0185
     27 C         144.0087  144.6472  162.8207 C.3     1  UNL1        0.0686
     28 N         144.7264  143.4070  162.3772 N.3     1  UNL1       -0.2972
     29 H         145.6175  143.6573  161.9487 H       1  UNL1        0.1233
@<TRIPOS>BOND
     1    14    15    1
     2    15    16   ar
     3    16    17   ar
     4    17    18   ar
     5    18    19   ar
     6    19    12    1
     7    12     1    1
     8     1     2   ar
     9     2     3   ar
    10     3    21    1
    11    21    23    1
    12    24    23    1
    13    24    25    1
    14    25    26    1
    15    26    27    1
    16    27    28    1
    17     3     4   ar
    18     4     5   ar
    19     5     6   ar
    20     6     7    1
    21     7     8   am
    22     7     9    2
    23    19    20   ar
    24    20    15   ar
    25     6     1   ar
    26    28    24    1
    27    12    13    1
    28    21    22    1
    29    28    29    1
    30     8    10    1
    31     8    11    1
@<TRIPOS>MOLECULE
*****
 29 31 0 0 0
SMALL
GASTEIGER

@<TRIPOS>ATOM
      1 C         139.2814  141.8201  164.8023 C.ar    1  UNL1        0.1409
      2 N         139.3047  143.2178  164.2584 N.ar    1  UNL1       -0.1986
      3 C         138.4045  143.5944  163.1191 C.ar    1  UNL1        0.2181
      4 N         137.4811  142.5732  162.5237 N.ar    1  UNL1       -0.2120
      5 C         137.4578  141.1755  163.0676 C.ar    1  UNL1        0.1091
      6 C         138.3579  140.7989  164.2069 C.ar    1  UNL1        0.1040
      7 C         138.3346  139.4012  164.7508 C.2     1  UNL1        0.2470
      8 N         138.7125  138.2473  163.8701 N.am    1  UNL1       -0.3252
      9 O         137.9334  139.1574  166.1755 O.2     1  UNL1       -0.2702
     10 H         138.9758  138.4073  162.9350 H       1  UNL1        0.1453
     11 H         138.6972  137.3299  164.2271 H       1  UNL1        0.1453
     12 N         140.1815  141.4435  165.9415 N.pl3   1  UNL1       -0.2977
     13 H         139.9262  141.6679  166.8655 H       1  UNL1        0.1536
     14 C         145.0107  141.4304  164.0235 C.3     1  UNL1        0.0311
     15 C         143.8853  140.7186  164.7140 C.ar    1  UNL1       -0.0206
     16 C         144.0490  139.2886  165.1359 C.ar    1  UNL1       -0.0042
     17 C         142.9235  138.5768  165.8264 C.ar    1  UNL1        0.0009
     18 C         141.6344  139.2951  166.0949 C.ar    1  UNL1        0.0146
     19 C         141.4707  140.7252  165.6730 C.ar    1  UNL1        0.0491
     20 C         142.5962  141.4369  164.9825 C.ar    1  UNL1        0.0104
     21 N         138.4278  144.9921  162.5752 N.pl3   1  UNL1       -0.3016
     22 H         137.6416  145.5749  162.6818 H       1  UNL1        0.1497
     23 C         139.6490  145.5018  161.8688 C.3     1  UNL1        0.1052
     24 C         141.0127  145.1984  162.4150 C.3     1  UNL1        0.0739
     25 C         142.0980  144.4427  161.7072 C.3     1  UNL1        0.0189
     26 C         143.2866  144.3748  162.6196 C.3     1  UNL1        0.0185
     27 C         142.9359  145.0884  163.8915 C.3     1  UNL1        0.0686
     28 N         141.5306  145.5975  163.7651 N.3     1  UNL1       -0.2972
     29 H         141.5213  146.6136  163.8528 H       1  UNL1        0.1233
@<TRIPOS>BOND
     1    14    15    1
     2    15    16   ar
     3    16    17   ar
     4    17    18   ar
     5    18    19   ar
     6    19    12    1
     7    12     1    1
     8     1     2   ar
     9     2     3   ar
    10     3    21    1
    11    21    23    1
    12    24    23    1
    13    24    25    1
    14    25    26    1
    15    26    27    1
    16    27    28    1
    17     3     4   ar
    18     4     5   ar
    19     5     6   ar
    20     6     7    1
    21     7     8   am
    22     7     9    2
    23    19    20   ar
    24    20    15   ar
    25     6     1   ar
    26    28    24    1
    27    12    13    1
    28    21    22    1
    29    28    29    1
    30     8    10    1
    31     8    11    1
@<TRIPOS>MOLECULE
*****
 29 31 0 0 0
SMALL
GASTEIGER

@<TRIPOS>ATOM
      1 C         141.4515  144.2848  161.0371 C.ar    1  UNL1        0.1409
      2 N         140.2346  144.2403  161.9130 N.ar    1  UNL1       -0.1986
      3 C         138.9510  143.6712  161.3851 C.ar    1  UNL1        0.2181
      4 N         138.8844  143.1466  159.9814 N.ar    1  UNL1       -0.2120
      5 C         140.1013  143.1912  159.1056 C.ar    1  UNL1        0.1091
      6 C         141.3848  143.7602  159.6334 C.ar    1  UNL1        0.1040
      7 C         142.6017  143.8048  158.7575 C.2     1  UNL1        0.2470
      8 N         142.6143  144.6734  157.5347 N.am    1  UNL1       -0.3252
      9 O         143.8061  142.9806  159.1045 O.2     1  UNL1       -0.2702
     10 H         141.8238  145.2143  157.3069 H       1  UNL1        0.1453
     11 H         143.4130  144.7026  156.9598 H       1  UNL1        0.1453
     12 N         142.7350  144.8539  161.5649 N.pl3   1  UNL1       -0.2977
     13 H         143.1179  145.6648  161.1585 H       1  UNL1        0.1536
     14 C         145.1760  140.7234  163.5601 C.3     1  UNL1        0.0311
     15 C         144.6557  142.1223  163.7095 C.ar    1  UNL1       -0.0206
     16 C         144.8357  142.8549  165.0060 C.ar    1  UNL1       -0.0042
     17 C         144.3154  144.2539  165.1555 C.ar    1  UNL1        0.0009
     18 C         143.6152  144.9202  164.0085 C.ar    1  UNL1        0.0146
     19 C         143.4353  144.1876  162.7120 C.ar    1  UNL1        0.0491
     20 C         143.9555  142.7887  162.5625 C.ar    1  UNL1        0.0104
     21 N         137.7341  143.6266  162.2610 N.pl3   1  UNL1       -0.3016
     22 H         137.0618  144.3438  162.2064 H       1  UNL1        0.1497
     23 C         137.5415  142.4894  163.2200 C.3     1  UNL1        0.1052
     24 C         137.7142  141.0752  162.7508 C.3     1  UNL1        0.0739
     25 C         138.3690  139.9652  163.5184 C.3     1  UNL1        0.0189
     26 C         138.3219  138.7267  162.6736 C.3     1  UNL1        0.0185
     27 C         137.6380  139.0711  161.3837 C.3     1  UNL1        0.0686
     28 N         137.2625  140.5226  161.4315 N.3     1  UNL1       -0.2972
     29 H         136.2512  140.6215  161.3428 H       1  UNL1        0.1233
@<TRIPOS>BOND
     1    14    15    1
     2    15    16   ar
     3    16    17   ar
     4    17    18   ar
     5    18    19   ar
     6    19    12    1
     7    12     1    1
     8     1     2   ar
     9     2     3   ar
    10     3    21    1
    11    21    23    1
    12    24    23    1
    13    24    25    1
    14    25    26    1
    15    26    27    1
    16    27    28    1
    17     3     4   ar
    18     4     5   ar
    19     5     6   ar
    20     6     7    1
    21     7     8   am
    22     7     9    2
    23    19    20   ar
    24    20    15   ar
    25     6     1   ar
    26    28    24    1
    27    12    13    1
    28    21    22    1
    29    28    29    1
    30     8    10    1
    31     8    11    1
