@<TRIPOS>MOLECULE
*****
 28 30 0 0 0
SMALL
GASTEIGER

@<TRIPOS>ATOM
      1 N         138.3633  141.1160  161.4667 N.3     1  UNL1       -0.1594
      2 C         138.7435  139.6667  161.5347 C.3     1  UNL1        0.0955
      3 C         138.8163  138.9719  162.8621 C.3     1  UNL1        0.0208
      4 C         138.5089  139.7265  164.1215 C.3     1  UNL1        0.0209
      5 C         138.1287  141.1759  164.0534 C.3     1  UNL1        0.0208
      6 C         138.0559  141.8707  162.7260 C.3     1  UNL1        0.0955
      7 S         138.2904  141.8108  160.1393 S.O2    1  UNL1        0.0438
      8 O         138.2076  143.1359  160.8374 O.2     1  UNL1       -0.1573
      9 O         138.3732  140.4857  159.4412 O.2     1  UNL1       -0.1573
     10 C         137.8745  141.7278  157.5761 C.3     1  UNL1        0.0289
     11 C         138.2176  142.5056  158.8119 C.3     1  UNL1        0.1692
     12 C         138.3096  140.0122  165.5805 C.3     1  UNL1        0.0897
     13 N         139.3410  140.7933  166.3395 N.am    1  UNL1       -0.3008
     14 C         139.5965  140.4902  167.7862 C.2     1  UNL1        0.2467
     15 O         138.8207  139.4061  168.4738 O.2     1  UNL1       -0.2701
     16 H         139.8501  141.5049  165.8882 H       1  UNL1        0.1497
     17 C         140.6279  141.2713  168.5453 C.ar    1  UNL1        0.0640
     18 C         140.2653  142.5884  169.1649 C.ar    1  UNL1        0.0062
     19 C         141.2967  143.3693  169.9239 C.ar    1  UNL1        0.0116
     20 C         142.6907  142.8334  170.0634 C.ar    1  UNL1        0.0585
     21 CL        143.7222  143.6144  170.8224 Cl      1  UNL1       -0.0822
     22 C         143.0534  141.5163  169.4437 C.ar    1  UNL1        0.0229
     23 C         142.0220  140.7353  168.6847 C.ar    1  UNL1        0.0629
     24 CL        142.3845  139.4182  168.0651 Cl      1  UNL1       -0.0821
     25 C         138.8199  138.3763  164.6962 C.3     1  UNL1        0.0017
     26 C         140.2227  137.8472  164.6516 C.3     1  UNL1        0.0001
     27 C         141.1875  136.7515  164.3072 C.3     1  UNL1        0.0000
     28 C         141.6879  138.0265  164.9186 C.3     1  UNL1        0.0000
@<TRIPOS>BOND
     1    10    11    1
     2    11     7    1
     3     7     8    2
     4     7     9    2
     5     7     1    1
     6     1     2    1
     7     2     3    1
     8     3     4    1
     9     4    12    1
    10    12    13    1
    11    13    14   am
    12    14    15    2
    13    14    17    1
    14    17    18   ar
    15    18    19   ar
    16    19    20   ar
    17    20    21    1
    18    20    22   ar
    19    22    23   ar
    20    23    24    1
    21     4    25    1
    22    25    26    1
    23    26    27    1
    24    27    28    1
    25     4     5    1
    26     5     6    1
    27     6     1    1
    28    23    17   ar
    29    28    26    1
    30    13    16    1
@<TRIPOS>MOLECULE
*****
 28 30 0 0 0
SMALL
GASTEIGER

@<TRIPOS>ATOM
      1 N         140.9797  141.8351  168.0536 N.3     1  UNL1       -0.1594
      2 C         140.4443  140.4384  168.1656 C.3     1  UNL1        0.0955
      3 C         139.5184  139.9034  167.1137 C.3     1  UNL1        0.0208
      4 C         139.1278  140.7652  165.9498 C.3     1  UNL1        0.0209
      5 C         139.6631  142.1619  165.8378 C.3     1  UNL1        0.0208
      6 C         140.5891  142.6968  166.8896 C.3     1  UNL1        0.0955
      7 S         141.9056  142.3700  169.1054 S.O2    1  UNL1        0.0438
      8 O         142.9233  141.3311  168.7379 O.2     1  UNL1       -0.1573
      9 O         140.8880  143.4089  169.4729 O.2     1  UNL1       -0.1573
     10 C         144.2965  142.5879  170.0985 C.3     1  UNL1        0.0289
     11 C         142.8316  142.9050  170.1573 C.3     1  UNL1        0.1692
     12 C         138.4721  141.1935  164.6705 C.3     1  UNL1        0.0897
     13 N         139.2312  142.0276  163.6814 N.am    1  UNL1       -0.3008
     14 C         138.6476  142.3013  162.3269 C.2     1  UNL1        0.2467
     15 O         137.3051  141.7408  161.9615 O.2     1  UNL1       -0.2701
     16 H         140.1123  142.3955  163.9213 H       1  UNL1        0.1497
     17 C         139.4067  143.1353  161.3379 C.ar    1  UNL1        0.0640
     18 C         139.9413  142.5102  160.0835 C.ar    1  UNL1        0.0062
     19 C         140.7003  143.3443  159.0945 C.ar    1  UNL1        0.0116
     20 C         140.9247  144.8035  159.3598 C.ar    1  UNL1        0.0585
     21 CL        141.6837  145.6376  158.3709 Cl      1  UNL1       -0.0822
     22 C         140.3901  145.4286  160.6142 C.ar    1  UNL1        0.0229
     23 C         139.6311  144.5946  161.6033 C.ar    1  UNL1        0.0629
     24 CL        139.0964  145.2196  162.8577 Cl      1  UNL1       -0.0821
     25 C         138.3647  139.5172  165.6176 C.3     1  UNL1        0.0017
     26 C         138.9683  138.4890  164.7074 C.3     1  UNL1        0.0001
     27 C         140.0772  137.5327  164.3822 C.3     1  UNL1        0.0000
     28 C         138.9047  137.6643  163.4561 C.3     1  UNL1        0.0000
@<TRIPOS>BOND
     1    10    11    1
     2    11     7    1
     3     7     8    2
     4     7     9    2
     5     7     1    1
     6     1     2    1
     7     2     3    1
     8     3     4    1
     9     4    12    1
    10    12    13    1
    11    13    14   am
    12    14    15    2
    13    14    17    1
    14    17    18   ar
    15    18    19   ar
    16    19    20   ar
    17    20    21    1
    18    20    22   ar
    19    22    23   ar
    20    23    24    1
    21     4    25    1
    22    25    26    1
    23    26    27    1
    24    27    28    1
    25     4     5    1
    26     5     6    1
    27     6     1    1
    28    23    17   ar
    29    28    26    1
    30    13    16    1
@<TRIPOS>MOLECULE
*****
 28 30 0 0 0
SMALL
GASTEIGER

@<TRIPOS>ATOM
      1 N         143.3355  139.3648  160.7435 N.3     1  UNL1       -0.1594
      2 C         142.2492  138.3388  160.8747 C.3     1  UNL1        0.0955
      3 C         141.8739  137.8128  162.2285 C.3     1  UNL1        0.0208
      4 C         142.5850  138.3128  163.4509 C.3     1  UNL1        0.0209
      5 C         143.6713  139.3388  163.3196 C.3     1  UNL1        0.0208
      6 C         144.0466  139.8647  161.9659 C.3     1  UNL1        0.0955
      7 S         143.7108  139.8907  159.3897 S.O2    1  UNL1        0.0438
      8 O         143.9849  141.2381  159.9892 O.2     1  UNL1       -0.1573
      9 O         143.4366  138.5433  158.7902 O.2     1  UNL1       -0.1573
     10 C         143.9280  141.8762  157.7283 C.3     1  UNL1        0.0289
     11 C         144.0860  140.4167  158.0360 C.3     1  UNL1        0.1692
     12 C         142.9646  138.4762  164.8929 C.3     1  UNL1        0.0897
     13 N         142.4028  139.6146  165.6919 N.am    1  UNL1       -0.3008
     14 C         142.5632  139.6352  167.1832 C.2     1  UNL1        0.2467
     15 O         143.2855  138.5175  167.8753 O.2     1  UNL1       -0.2701
     16 H         141.9287  140.3482  165.2376 H       1  UNL1        0.1497
     17 C         142.0014  140.7736  167.9823 C.ar    1  UNL1        0.0640
     18 C         142.9180  141.8194  168.5447 C.ar    1  UNL1        0.0062
     19 C         142.3561  142.9577  169.3437 C.ar    1  UNL1        0.0116
     20 C         140.8778  143.0503  169.5804 C.ar    1  UNL1        0.0585
     21 CL        140.3160  144.1886  170.3794 Cl      1  UNL1       -0.0822
     22 C         139.9613  142.0045  169.0180 C.ar    1  UNL1        0.0229
     23 C         140.5231  140.8661  168.2189 C.ar    1  UNL1        0.0629
     24 CL        139.6067  139.8203  167.6565 Cl      1  UNL1       -0.0821
     25 C         141.6304  137.3436  164.0830 C.3     1  UNL1        0.0017
     26 C         140.2158  137.7575  164.3612 C.3     1  UNL1        0.0001
     27 C         138.8983  137.5098  165.0340 C.3     1  UNL1        0.0000
     28 C         139.0831  138.7221  164.1702 C.3     1  UNL1        0.0000
@<TRIPOS>BOND
     1    10    11    1
     2    11     7    1
     3     7     8    2
     4     7     9    2
     5     7     1    1
     6     1     2    1
     7     2     3    1
     8     3     4    1
     9     4    12    1
    10    12    13    1
    11    13    14   am
    12    14    15    2
    13    14    17    1
    14    17    18   ar
    15    18    19   ar
    16    19    20   ar
    17    20    21    1
    18    20    22   ar
    19    22    23   ar
    20    23    24    1
    21     4    25    1
    22    25    26    1
    23    26    27    1
    24    27    28    1
    25     4     5    1
    26     5     6    1
    27     6     1    1
    28    23    17   ar
    29    28    26    1
    30    13    16    1
@<TRIPOS>MOLECULE
*****
 28 30 0 0 0
SMALL
GASTEIGER

@<TRIPOS>ATOM
      1 N         144.1153  140.7701  160.0670 N.3     1  UNL1       -0.1594
      2 C         144.4409  142.1671  160.5056 C.3     1  UNL1        0.0955
      3 C         144.7086  142.4556  161.9530 C.3     1  UNL1        0.0208
      4 C         144.6508  141.3472  162.9619 C.3     1  UNL1        0.0209
      5 C         144.3252  139.9502  162.5233 C.3     1  UNL1        0.0208
      6 C         144.0575  139.6617  161.0759 C.3     1  UNL1        0.0955
      7 S         143.8476  140.4816  158.6196 S.O2    1  UNL1        0.0438
      8 O         143.7245  139.0200  158.9337 O.2     1  UNL1       -0.1573
      9 O         143.9708  141.9431  158.3054 O.2     1  UNL1       -0.1573
     10 C         144.7193  140.1148  156.1998 C.3     1  UNL1        0.0289
     11 C         143.5799  140.1931  157.1721 C.3     1  UNL1        0.1692
     12 C         144.7135  140.6384  164.2824 C.3     1  UNL1        0.0897
     13 N         143.5987  140.7983  165.2732 N.am    1  UNL1       -0.3008
     14 C         143.0950  139.6077  166.0340 C.2     1  UNL1        0.2467
     15 O         143.7061  138.2573  165.8039 O.2     1  UNL1       -0.2701
     16 H         143.1977  141.6846  165.4241 H       1  UNL1        0.1497
     17 C         141.9802  139.7676  167.0247 C.ar    1  UNL1        0.0640
     18 C         142.2888  139.8911  168.4875 C.ar    1  UNL1        0.0062
     19 C         141.1739  140.0510  169.4782 C.ar    1  UNL1        0.0116
     20 C         139.7506  140.0874  169.0063 C.ar    1  UNL1        0.0585
     21 CL        138.6357  140.2474  169.9970 Cl      1  UNL1       -0.0822
     22 C         139.4420  139.9640  167.5435 C.ar    1  UNL1        0.0229
     23 C         140.5568  139.8041  166.5527 C.ar    1  UNL1        0.0629
     24 CL        140.2484  139.6806  165.0900 Cl      1  UNL1       -0.0821
     25 C         144.9981  142.4981  163.8591 C.3     1  UNL1        0.0017
     26 C         144.0390  143.6401  164.0194 C.3     1  UNL1        0.0001
     27 C         143.7775  145.1146  164.1053 C.3     1  UNL1        0.0000
     28 C         142.6391  144.1437  164.2111 C.3     1  UNL1        0.0000
@<TRIPOS>BOND
     1    10    11    1
     2    11     7    1
     3     7     8    2
     4     7     9    2
     5     7     1    1
     6     1     2    1
     7     2     3    1
     8     3     4    1
     9     4    12    1
    10    12    13    1
    11    13    14   am
    12    14    15    2
    13    14    17    1
    14    17    18   ar
    15    18    19   ar
    16    19    20   ar
    17    20    21    1
    18    20    22   ar
    19    22    23   ar
    20    23    24    1
    21     4    25    1
    22    25    26    1
    23    26    27    1
    24    27    28    1
    25     4     5    1
    26     5     6    1
    27     6     1    1
    28    23    17   ar
    29    28    26    1
    30    13    16    1
@<TRIPOS>MOLECULE
*****
 28 30 0 0 0
SMALL
GASTEIGER

@<TRIPOS>ATOM
      1 N         141.5265  138.2687  160.4835 N.3     1  UNL1       -0.1594
      2 C         140.0710  138.2881  160.8456 C.3     1  UNL1        0.0955
      3 C         139.6480  138.0502  162.2649 C.3     1  UNL1        0.0208
      4 C         140.6805  137.7928  163.3221 C.3     1  UNL1        0.0209
      5 C         142.1359  137.7733  162.9600 C.3     1  UNL1        0.0208
      6 C         142.5590  138.0113  161.5407 C.3     1  UNL1        0.0955
      7 S         141.9495  138.5067  159.0642 S.O2    1  UNL1        0.0438
      8 O         140.5109  138.6171  158.6540 O.2     1  UNL1       -0.1573
      9 O         143.3881  138.3962  159.4744 O.2     1  UNL1       -0.1573
     10 C         142.9176  137.6130  156.8250 C.3     1  UNL1        0.0289
     11 C         142.3725  138.7446  157.6449 C.3     1  UNL1        0.1692
     12 C         141.2798  137.5077  164.6674 C.3     1  UNL1        0.0897
     13 N         141.3617  138.5949  165.6975 N.am    1  UNL1       -0.3008
     14 C         142.6441  138.8303  166.4392 C.2     1  UNL1        0.2467
     15 O         143.8445  137.9784  166.1506 O.2     1  UNL1       -0.2701
     16 H         140.5738  139.1540  165.8869 H       1  UNL1        0.1497
     17 C         142.7261  139.9175  167.4693 C.ar    1  UNL1        0.0640
     18 C         142.5512  139.5887  168.9224 C.ar    1  UNL1        0.0062
     19 C         142.6331  140.6759  169.9525 C.ar    1  UNL1        0.0116
     20 C         142.8899  142.0920  169.5296 C.ar    1  UNL1        0.0585
     21 CL        142.9718  143.1792  170.5597 Cl      1  UNL1       -0.0822
     22 C         143.0648  142.4208  168.0766 C.ar    1  UNL1        0.0229
     23 C         142.9829  141.3336  167.0464 C.ar    1  UNL1        0.0629
     24 CL        143.1578  141.6623  165.5934 Cl      1  UNL1       -0.0821
     25 C         139.4331  137.7132  164.1514 C.3     1  UNL1        0.0017
     26 C         138.7137  138.9688  164.5463 C.3     1  UNL1        0.0001
     27 C         138.0665  140.2684  164.1695 C.3     1  UNL1        0.0000
     28 C         138.1148  139.8438  165.6073 C.3     1  UNL1        0.0000
@<TRIPOS>BOND
     1    10    11    1
     2    11     7    1
     3     7     8    2
     4     7     9    2
     5     7     1    1
     6     1     2    1
     7     2     3    1
     8     3     4    1
     9     4    12    1
    10    12    13    1
    11    13    14   am
    12    14    15    2
    13    14    17    1
    14    17    18   ar
    15    18    19   ar
    16    19    20   ar
    17    20    21    1
    18    20    22   ar
    19    22    23   ar
    20    23    24    1
    21     4    25    1
    22    25    26    1
    23    26    27    1
    24    27    28    1
    25     4     5    1
    26     5     6    1
    27     6     1    1
    28    23    17   ar
    29    28    26    1
    30    13    16    1
@<TRIPOS>MOLECULE
*****
 28 30 0 0 0
SMALL
GASTEIGER

@<TRIPOS>ATOM
      1 N         139.4098  143.5191  160.1585 N.3     1  UNL1       -0.1594
      2 C         138.9340  142.1717  159.7025 C.3     1  UNL1        0.0955
      3 C         138.3768  141.1969  160.6971 C.3     1  UNL1        0.0208
      4 C         138.2954  141.5695  162.1478 C.3     1  UNL1        0.0209
      5 C         138.7713  142.9170  162.6038 C.3     1  UNL1        0.0208
      6 C         139.3285  143.8917  161.6091 C.3     1  UNL1        0.0955
      7 S         139.9670  144.4939  159.1638 S.O2    1  UNL1        0.0438
      8 O         139.9294  145.5753  160.2026 O.2     1  UNL1       -0.1573
      9 O         140.0047  143.4124  158.1251 O.2     1  UNL1       -0.1573
     10 C         141.9791  145.4217  157.8071 C.3     1  UNL1        0.0289
     11 C         140.5242  145.4686  158.1691 C.3     1  UNL1        0.1692
     12 C         138.0150  141.4612  163.6174 C.3     1  UNL1        0.0897
     13 N         139.1106  141.7128  164.6105 N.am    1  UNL1       -0.3008
     14 C         139.2539  140.8240  165.8103 C.2     1  UNL1        0.2467
     15 O         138.3016  139.6836  166.0169 O.2     1  UNL1       -0.2701
     16 H         139.7356  142.4613  164.4749 H       1  UNL1        0.1497
     17 C         140.3495  141.0756  166.8034 C.ar    1  UNL1        0.0640
     18 C         140.2730  142.2602  167.7205 C.ar    1  UNL1        0.0062
     19 C         141.3687  142.5118  168.7136 C.ar    1  UNL1        0.0116
     20 C         142.5408  141.5788  168.7897 C.ar    1  UNL1        0.0585
     21 CL        143.6364  141.8304  169.7828 Cl      1  UNL1       -0.0822
     22 C         142.6173  140.3942  167.8727 C.ar    1  UNL1        0.0229
     23 C         141.5217  140.1426  166.8795 C.ar    1  UNL1        0.0629
     24 CL        141.5981  138.9581  165.9625 Cl      1  UNL1       -0.0821
     25 C         137.7221  140.1844  162.2021 C.3     1  UNL1        0.0017
     26 C         138.6144  139.0143  162.4928 C.3     1  UNL1        0.0001
     27 C         139.9389  138.3242  162.3528 C.3     1  UNL1        0.0000
     28 C         138.8355  137.6776  163.1365 C.3     1  UNL1        0.0000
@<TRIPOS>BOND
     1    10    11    1
     2    11     7    1
     3     7     8    2
     4     7     9    2
     5     7     1    1
     6     1     2    1
     7     2     3    1
     8     3     4    1
     9     4    12    1
    10    12    13    1
    11    13    14   am
    12    14    15    2
    13    14    17    1
    14    17    18   ar
    15    18    19   ar
    16    19    20   ar
    17    20    21    1
    18    20    22   ar
    19    22    23   ar
    20    23    24    1
    21     4    25    1
    22    25    26    1
    23    26    27    1
    24    27    28    1
    25     4     5    1
    26     5     6    1
    27     6     1    1
    28    23    17   ar
    29    28    26    1
    30    13    16    1
@<TRIPOS>MOLECULE
*****
 28 30 0 0 0
SMALL
GASTEIGER

@<TRIPOS>ATOM
      1 N         140.6732  140.3527  168.0339 N.3     1  UNL1       -0.1594
      2 C         142.1424  140.0632  167.9478 C.3     1  UNL1        0.0955
      3 C         142.6856  139.2782  166.7908 C.3     1  UNL1        0.0208
      4 C         141.7596  138.7828  165.7198 C.3     1  UNL1        0.0209
      5 C         140.2904  139.0723  165.8059 C.3     1  UNL1        0.0208
      6 C         139.7472  139.8573  166.9629 C.3     1  UNL1        0.0955
      7 S         140.1300  141.1377  169.1909 S.O2    1  UNL1        0.0438
      8 O         139.9010  139.8632  169.9481 O.2     1  UNL1       -0.1573
      9 O         140.3589  142.4121  168.4338 O.2     1  UNL1       -0.1573
     10 C         139.9864  143.3562  170.5353 C.3     1  UNL1        0.0289
     11 C         139.5868  141.9226  170.3480 C.3     1  UNL1        0.1692
     12 C         141.2868  138.1050  164.4679 C.3     1  UNL1        0.0897
     13 N         140.5585  138.8915  163.4186 N.am    1  UNL1       -0.3008
     14 C         140.7378  138.5528  161.9683 C.2     1  UNL1        0.2467
     15 O         141.6452  137.4277  161.5675 O.2     1  UNL1       -0.2701
     16 H         139.9630  139.6299  163.6817 H       1  UNL1        0.1497
     17 C         140.0095  139.3392  160.9189 C.ar    1  UNL1        0.0640
     18 C         140.7726  140.2354  159.9889 C.ar    1  UNL1        0.0062
     19 C         140.0443  141.0218  158.9396 C.ar    1  UNL1        0.0116
     20 C         138.5531  140.9121  158.8202 C.ar    1  UNL1        0.0585
     21 CL        137.8248  141.6985  157.7709 Cl      1  UNL1       -0.0822
     22 C         137.7901  140.0160  159.7502 C.ar    1  UNL1        0.0229
     23 C         138.5183  139.2296  160.7996 C.ar    1  UNL1        0.0629
     24 CL        137.7554  138.3335  161.7296 Cl      1  UNL1       -0.0821
     25 C         143.0647  138.2578  165.1989 C.3     1  UNL1        0.0017
     26 C         143.9304  139.1252  164.3341 C.3     1  UNL1        0.0001
     27 C         144.2130  139.7680  163.0086 C.3     1  UNL1        0.0000
     28 C         145.1475  139.9850  164.1617 C.3     1  UNL1        0.0000
@<TRIPOS>BOND
     1    10    11    1
     2    11     7    1
     3     7     8    2
     4     7     9    2
     5     7     1    1
     6     1     2    1
     7     2     3    1
     8     3     4    1
     9     4    12    1
    10    12    13    1
    11    13    14   am
    12    14    15    2
    13    14    17    1
    14    17    18   ar
    15    18    19   ar
    16    19    20   ar
    17    20    21    1
    18    20    22   ar
    19    22    23   ar
    20    23    24    1
    21     4    25    1
    22    25    26    1
    23    26    27    1
    24    27    28    1
    25     4     5    1
    26     5     6    1
    27     6     1    1
    28    23    17   ar
    29    28    26    1
    30    13    16    1
@<TRIPOS>MOLECULE
*****
 28 30 0 0 0
SMALL
GASTEIGER

@<TRIPOS>ATOM
      1 N         141.2419  142.3015  167.6551 N.3     1  UNL1       -0.1594
      2 C         142.7390  142.2169  167.6912 C.3     1  UNL1        0.0955
      3 C         143.5442  142.6635  166.5070 C.3     1  UNL1        0.0208
      4 C         142.8522  143.1946  165.2867 C.3     1  UNL1        0.0209
      5 C         141.3551  143.2792  165.2507 C.3     1  UNL1        0.0208
      6 C         140.5499  142.8326  166.4349 C.3     1  UNL1        0.0955
      7 S         140.4367  141.8549  168.8393 S.O2    1  UNL1        0.0438
      8 O         140.5337  140.4337  168.3693 O.2     1  UNL1       -0.1573
      9 O         140.3398  143.2761  169.3093 O.2     1  UNL1       -0.1573
     10 C         138.7209  140.2221  169.9070 C.3     1  UNL1        0.0289
     11 C         139.6316  141.4083  170.0235 C.3     1  UNL1        0.1692
     12 C         142.6566  143.7652  163.9133 C.3     1  UNL1        0.0897
     13 N         141.6818  143.1276  162.9682 N.am    1  UNL1       -0.3008
     14 C         141.9173  143.1968  161.4884 C.2     1  UNL1        0.2467
     15 O         143.1276  143.9035  160.9538 O.2     1  UNL1       -0.2701
     16 H         140.8874  142.6638  163.3191 H       1  UNL1        0.1497
     17 C         140.9425  142.5592  160.5432 C.ar    1  UNL1        0.0640
     18 C         139.6895  143.2866  160.1546 C.ar    1  UNL1        0.0062
     19 C         138.7148  142.6489  159.2095 C.ar    1  UNL1        0.0116
     20 C         138.9929  141.2841  158.6530 C.ar    1  UNL1        0.0585
     21 CL        138.0182  140.6464  157.7079 Cl      1  UNL1       -0.0822
     22 C         140.2459  140.5567  159.0417 C.ar    1  UNL1        0.0229
     23 C         141.2207  141.1943  159.9868 C.ar    1  UNL1        0.0629
     24 CL        142.4737  140.4670  160.3755 Cl      1  UNL1       -0.0821
     25 C         144.2815  143.3082  164.8458 C.3     1  UNL1        0.0017
     26 C         144.9030  142.2157  164.0273 C.3     1  UNL1        0.0001
     27 C         145.4326  141.7158  162.7160 C.3     1  UNL1        0.0000
     28 C         145.4499  140.8229  163.9211 C.3     1  UNL1        0.0000
@<TRIPOS>BOND
     1    10    11    1
     2    11     7    1
     3     7     8    2
     4     7     9    2
     5     7     1    1
     6     1     2    1
     7     2     3    1
     8     3     4    1
     9     4    12    1
    10    12    13    1
    11    13    14   am
    12    14    15    2
    13    14    17    1
    14    17    18   ar
    15    18    19   ar
    16    19    20   ar
    17    20    21    1
    18    20    22   ar
    19    22    23   ar
    20    23    24    1
    21     4    25    1
    22    25    26    1
    23    26    27    1
    24    27    28    1
    25     4     5    1
    26     5     6    1
    27     6     1    1
    28    23    17   ar
    29    28    26    1
    30    13    16    1
@<TRIPOS>MOLECULE
*****
 28 30 0 0 0
SMALL
GASTEIGER

@<TRIPOS>ATOM
      1 N         142.4567  140.6451  167.3964 N.3     1  UNL1       -0.1594
      2 C         142.9166  142.0662  167.2585 C.3     1  UNL1        0.0955
      3 C         143.7141  142.4834  166.0585 C.3     1  UNL1        0.0208
      4 C         144.0516  141.4795  164.9963 C.3     1  UNL1        0.0209
      5 C         143.5916  140.0585  165.1341 C.3     1  UNL1        0.0208
      6 C         142.7942  139.6413  166.3342 C.3     1  UNL1        0.0955
      7 S         141.6592  140.2280  168.5964 S.O2    1  UNL1        0.0438
      8 O         140.4124  140.7571  167.9518 O.2     1  UNL1       -0.1573
      9 O         142.9060  139.6988  169.2410 O.2     1  UNL1       -0.1573
     10 C         139.4743  140.3441  169.9972 C.3     1  UNL1        0.0289
     11 C         140.8618  139.8108  169.7964 C.3     1  UNL1        0.1692
     12 C         144.6170  140.8991  163.7340 C.3     1  UNL1        0.0897
     13 N         143.7161  140.1958  162.7626 N.am    1  UNL1       -0.3008
     14 C         143.6364  140.6636  161.3396 C.2     1  UNL1        0.2467
     15 O         144.4578  141.8347  160.8881 O.2     1  UNL1       -0.2701
     16 H         143.1770  139.4272  163.0590 H       1  UNL1        0.1497
     17 C         142.7355  139.9603  160.3682 C.ar    1  UNL1        0.0640
     18 C         143.2258  138.7484  159.6328 C.ar    1  UNL1        0.0062
     19 C         142.3248  138.0451  158.6614 C.ar    1  UNL1        0.0116
     20 C         140.9335  138.5536  158.4255 C.ar    1  UNL1        0.0585
     21 CL        140.0325  137.8504  157.4541 Cl      1  UNL1       -0.0822
     22 C         140.4432  139.7656  159.1609 C.ar    1  UNL1        0.0229
     23 C         141.3441  140.4689  160.1323 C.ar    1  UNL1        0.0629
     24 CL        140.8539  141.6808  160.8678 Cl      1  UNL1       -0.0821
     25 C         144.7079  142.6991  164.4201 C.3     1  UNL1        0.0017
     26 C         143.8712  143.7802  163.8030 C.3     1  UNL1        0.0001
     27 C         143.5496  145.2351  163.6305 C.3     1  UNL1        0.0000
     28 C         142.7436  144.1980  162.9063 C.3     1  UNL1        0.0000
@<TRIPOS>BOND
     1    10    11    1
     2    11     7    1
     3     7     8    2
     4     7     9    2
     5     7     1    1
     6     1     2    1
     7     2     3    1
     8     3     4    1
     9     4    12    1
    10    12    13    1
    11    13    14   am
    12    14    15    2
    13    14    17    1
    14    17    18   ar
    15    18    19   ar
    16    19    20   ar
    17    20    21    1
    18    20    22   ar
    19    22    23   ar
    20    23    24    1
    21     4    25    1
    22    25    26    1
    23    26    27    1
    24    27    28    1
    25     4     5    1
    26     5     6    1
    27     6     1    1
    28    23    17   ar
    29    28    26    1
    30    13    16    1
