@<TRIPOS>MOLECULE
*****
 30 34 0 0 0
SMALL
GASTEIGER

@<TRIPOS>ATOM
      1 C         137.8667  140.2920  162.2449 C.3     1  UNL1        0.0294
      2 C         137.3396  141.5246  162.9179 C.3     1  UNL1        0.0666
      3 S         138.2019  142.7473  163.0254 S.3     1  UNL1       -0.0756
      4 C         141.8788  142.3219  164.1935 C.ar    1  UNL1        0.2029
      5 N         141.2272  142.8017  165.4564 N.ar    1  UNL1       -0.1250
      6 N         139.7705  143.0195  165.1726 N.ar    1  UNL1       -0.1220
      7 C         139.5219  142.6743  163.7342 C.ar    1  UNL1        0.1933
      8 N         140.8249  142.2431  163.1291 N.ar    1  UNL1       -0.2860
      9 C         141.0368  141.8092  161.7090 C.3     1  UNL1        0.1341
     10 C         144.4031  144.1001  165.2497 C.3     1  UNL1        0.0556
     11 C         144.4900  142.7981  164.5101 C.ar    1  UNL1        0.1001
     12 N         145.7524  142.0848  164.1261 N.ar    1  UNL1       -0.2085
     13 C         145.3724  140.8265  163.4033 C.ar    1  UNL1        0.2849
     14 O         143.8751  140.7622  163.3406 O.2     1  UNL1       -0.4283
     15 C         143.3297  141.9807  164.0246 C.ar    1  UNL1        0.1964
     16 C         138.2472  139.0947  163.0645 C.3     1  UNL1        0.0730
     17 N         138.8865  139.2786  164.4089 N.3     1  UNL1       -0.2724
     18 C         138.1937  139.7306  165.6602 C.3     1  UNL1        0.0725
     19 C         139.2099  139.7742  166.7627 C.3     1  UNL1        0.0229
     20 C         140.5308  139.3492  166.1927 C.3     1  UNL1        0.0414
     21 C         141.7775  138.9073  165.4854 C.3     1  UNL1        0.0529
     22 C         143.0711  138.8063  166.2381 C.3     1  UNL1        0.2058
     23 O         143.1179  139.1472  167.6980 O.3     1  UNL1       -0.4758
     24 C         141.8711  139.5891  168.4054 C.ar    1  UNL1        0.1345
     25 C         141.9180  139.9300  169.8654 C.ar    1  UNL1        0.0366
     26 C         140.6713  140.3719  170.5727 C.ar    1  UNL1        0.0031
     27 C         139.3777  140.4729  169.8201 C.ar    1  UNL1       -0.0001
     28 C         139.3308  140.1320  168.3601 C.ar    1  UNL1       -0.0012
     29 C         140.5776  139.6901  167.6528 C.ar    1  UNL1        0.0126
     30 C         140.3309  139.0429  164.7380 C.3     1  UNL1        0.0763
@<TRIPOS>BOND
     1    10    11    1
     2    11    12   ar
     3    12    13   ar
     4    13    14   ar
     5    14    15   ar
     6    15     4    1
     7     4     5   ar
     8     5     6   ar
     9     6     7   ar
    10     7     3    1
    11     3     2    1
    12     2     1    1
    13     1    16    1
    14    16    17    1
    15    17    18    1
    16    18    19    1
    17    19    20    1
    18    20    21    1
    19    21    22    1
    20    22    23    1
    21    23    24    1
    22    24    25   ar
    23    25    26   ar
    24    26    27   ar
    25    27    28   ar
    26    28    29   ar
    27    20    30    1
    28     7     8   ar
    29     8     9    1
    30    15    11   ar
    31     8     4   ar
    32    30    17    1
    33    29    20    1
    34    29    24   ar
@<TRIPOS>MOLECULE
*****
 30 34 0 0 0
SMALL
GASTEIGER

@<TRIPOS>ATOM
      1 C         139.6331  145.4804  162.1936 C.3     1  UNL1        0.0294
      2 C         140.1005  145.3783  160.7719 C.3     1  UNL1        0.0666
      3 S         141.4354  144.7675  160.4633 S.3     1  UNL1       -0.0756
      4 C         143.0419  142.4516  163.1318 C.ar    1  UNL1        0.2029
      5 N         143.8408  143.7073  163.3189 N.ar    1  UNL1       -0.1250
      6 N         143.3362  144.7276  162.3421 N.ar    1  UNL1       -0.1220
      7 C         142.2255  144.1026  161.5512 C.ar    1  UNL1        0.1933
      8 N         142.0435  142.6960  162.0393 N.ar    1  UNL1       -0.2860
      9 C         141.0395  141.7072  161.5251 C.3     1  UNL1        0.1341
     10 C         144.0848  139.6056  161.9228 C.3     1  UNL1        0.0556
     11 C         143.6908  139.8675  163.3462 C.ar    1  UNL1        0.1001
     12 N         143.7071  138.8672  164.4638 N.ar    1  UNL1       -0.2085
     13 C         143.2378  139.5571  165.7104 C.ar    1  UNL1        0.2849
     14 O         142.9315  140.9839  165.3631 O.2     1  UNL1       -0.4283
     15 C         143.2115  141.1757  163.9020 C.ar    1  UNL1        0.1964
     16 C         138.6909  144.4537  162.7487 C.3     1  UNL1        0.0730
     17 N         139.0815  143.6517  163.9547 N.3     1  UNL1       -0.2724
     18 C         140.0130  144.0943  165.0440 C.3     1  UNL1        0.0725
     19 C         140.1164  142.9825  166.0456 C.3     1  UNL1        0.0229
     20 C         139.2489  141.8528  165.5753 C.3     1  UNL1        0.0414
     21 C         138.3453  140.8131  164.9816 C.3     1  UNL1        0.0529
     22 C         138.1514  139.5002  165.6808 C.3     1  UNL1        0.2058
     23 O         138.8611  139.2271  166.9737 O.3     1  UNL1       -0.4758
     24 C         139.7647  140.2668  167.5675 C.ar    1  UNL1        0.1345
     25 C         140.4744  139.9937  168.8604 C.ar    1  UNL1        0.0366
     26 C         141.3779  141.0334  169.4542 C.ar    1  UNL1        0.0031
     27 C         141.5718  142.3462  168.7550 C.ar    1  UNL1       -0.0001
     28 C         140.8622  142.6193  167.4620 C.ar    1  UNL1       -0.0012
     29 C         139.9586  141.5796  166.8683 C.ar    1  UNL1        0.0126
     30 C         138.6093  142.2664  164.2831 C.3     1  UNL1        0.0763
@<TRIPOS>BOND
     1    10    11    1
     2    11    12   ar
     3    12    13   ar
     4    13    14   ar
     5    14    15   ar
     6    15     4    1
     7     4     5   ar
     8     5     6   ar
     9     6     7   ar
    10     7     3    1
    11     3     2    1
    12     2     1    1
    13     1    16    1
    14    16    17    1
    15    17    18    1
    16    18    19    1
    17    19    20    1
    18    20    21    1
    19    21    22    1
    20    22    23    1
    21    23    24    1
    22    24    25   ar
    23    25    26   ar
    24    26    27   ar
    25    27    28   ar
    26    28    29   ar
    27    20    30    1
    28     7     8   ar
    29     8     9    1
    30    15    11   ar
    31     8     4   ar
    32    30    17    1
    33    29    20    1
    34    29    24   ar
@<TRIPOS>MOLECULE
*****
 30 34 0 0 0
SMALL
GASTEIGER

@<TRIPOS>ATOM
      1 C         137.7681  138.9336  161.9976 C.3     1  UNL1        0.0294
      2 C         137.8828  139.7998  160.7784 C.3     1  UNL1        0.0666
      3 S         138.1295  141.2721  160.9248 S.3     1  UNL1       -0.0756
      4 C         140.4544  142.4723  163.7919 C.ar    1  UNL1        0.2029
      5 N         139.1030  142.7715  164.3699 N.ar    1  UNL1       -0.1250
      6 N         138.0677  142.3584  163.3664 N.ar    1  UNL1       -0.1220
      7 C         138.7791  141.8038  162.1679 C.ar    1  UNL1        0.1933
      8 N         140.2542  141.8741  162.4309 N.ar    1  UNL1       -0.2860
      9 C         141.3387  141.4252  161.4970 C.3     1  UNL1        0.1341
     10 C         142.6474  144.7213  162.9076 C.3     1  UNL1        0.0556
     11 C         142.7822  143.7602  164.0512 C.ar    1  UNL1        0.1001
     12 N         143.9488  143.6642  164.9893 N.ar    1  UNL1       -0.2085
     13 C         143.6618  142.5710  165.9756 C.ar    1  UNL1        0.2849
     14 O         142.3178  141.9915  165.6470 O.2     1  UNL1       -0.4283
     15 C         141.7742  142.7264  164.4578 C.ar    1  UNL1        0.1964
     16 C         138.9878  138.2672  162.5616 C.3     1  UNL1        0.0730
     17 N         139.4701  138.6251  163.9361 N.3     1  UNL1       -0.2724
     18 C         138.6317  139.1858  165.0464 C.3     1  UNL1        0.0725
     19 C         139.5189  139.3925  166.2382 C.3     1  UNL1        0.0229
     20 C         140.9056  138.9595  165.8644 C.3     1  UNL1        0.0414
     21 C         142.2342  138.4915  165.3490 C.3     1  UNL1        0.0529
     22 C         143.4394  138.5266  166.2413 C.3     1  UNL1        0.2058
     23 O         143.3160  139.0297  167.6490 O.3     1  UNL1       -0.4758
     24 C         141.9873  139.4977  168.1645 C.ar    1  UNL1        0.1345
     25 C         141.8639  140.0008  169.5722 C.ar    1  UNL1        0.0366
     26 C         140.5353  140.4688  170.0875 C.ar    1  UNL1        0.0031
     27 C         139.3301  140.4337  169.1952 C.ar    1  UNL1       -0.0001
     28 C         139.4535  139.9306  167.7875 C.ar    1  UNL1       -0.0012
     29 C         140.7821  139.4626  167.2722 C.ar    1  UNL1        0.0126
     30 C         140.8754  138.4853  164.4417 C.3     1  UNL1        0.0763
@<TRIPOS>BOND
     1    10    11    1
     2    11    12   ar
     3    12    13   ar
     4    13    14   ar
     5    14    15   ar
     6    15     4    1
     7     4     5   ar
     8     5     6   ar
     9     6     7   ar
    10     7     3    1
    11     3     2    1
    12     2     1    1
    13     1    16    1
    14    16    17    1
    15    17    18    1
    16    18    19    1
    17    19    20    1
    18    20    21    1
    19    21    22    1
    20    22    23    1
    21    23    24    1
    22    24    25   ar
    23    25    26   ar
    24    26    27   ar
    25    27    28   ar
    26    28    29   ar
    27    20    30    1
    28     7     8   ar
    29     8     9    1
    30    15    11   ar
    31     8     4   ar
    32    30    17    1
    33    29    20    1
    34    29    24   ar
@<TRIPOS>MOLECULE
*****
 30 34 0 0 0
SMALL
GASTEIGER

@<TRIPOS>ATOM
      1 C         143.4711  139.5422  160.0680 C.3     1  UNL1        0.0294
      2 C         143.8564  138.2802  160.7815 C.3     1  UNL1        0.0666
      3 S         143.5079  138.1009  162.2295 S.3     1  UNL1       -0.0756
      4 C         140.0547  137.9771  163.9973 C.ar    1  UNL1        0.2029
      5 N         139.6670  137.6670  162.5819 N.ar    1  UNL1       -0.1250
      6 N         140.9133  137.6756  161.7474 N.ar    1  UNL1       -0.1220
      7 C         142.0714  137.9911  162.6471 C.ar    1  UNL1        0.1933
      8 N         141.5407  138.1774  164.0376 N.ar    1  UNL1       -0.2860
      9 C         142.3533  138.5062  165.2548 C.3     1  UNL1        0.1341
     10 C         139.5047  140.6376  165.8053 C.3     1  UNL1        0.0556
     11 C         138.8677  139.2934  165.9982 C.ar    1  UNL1        0.1001
     12 N         137.8660  138.9361  167.0560 N.ar    1  UNL1       -0.2085
     13 C         137.4996  137.4923  166.8787 C.ar    1  UNL1        0.2849
     14 O         138.2749  136.9573  165.7113 O.2     1  UNL1       -0.4283
     15 C         139.1204  138.0704  165.1672 C.ar    1  UNL1        0.1964
     16 C         143.6521  140.8699  160.7421 C.3     1  UNL1        0.0730
     17 N         142.5060  141.5007  161.4760 N.3     1  UNL1       -0.2724
     18 C         142.6145  142.5155  162.5753 C.3     1  UNL1        0.0725
     19 C         141.2257  142.8694  163.0181 C.3     1  UNL1        0.0229
     20 C         140.2589  142.0734  162.1924 C.3     1  UNL1        0.0414
     21 C         139.4172  141.2158  161.2947 C.3     1  UNL1        0.0529
     22 C         137.9217  141.2583  161.4031 C.3     1  UNL1        0.2058
     23 O         137.2679  142.1583  162.4092 O.3     1  UNL1       -0.4758
     24 C         138.1096  143.0159  163.3071 C.ar    1  UNL1        0.1345
     25 C         137.4558  143.9160  164.3133 C.ar    1  UNL1        0.0366
     26 C         138.2975  144.7736  165.2111 C.ar    1  UNL1        0.0031
     27 C         139.7930  144.7311  165.1027 C.ar    1  UNL1       -0.0001
     28 C         140.4468  143.8311  164.0965 C.ar    1  UNL1       -0.0012
     29 C         139.6051  142.9735  163.1987 C.ar    1  UNL1        0.0126
     30 C         141.0502  141.2275  161.2394 C.3     1  UNL1        0.0763
@<TRIPOS>BOND
     1    10    11    1
     2    11    12   ar
     3    12    13   ar
     4    13    14   ar
     5    14    15   ar
     6    15     4    1
     7     4     5   ar
     8     5     6   ar
     9     6     7   ar
    10     7     3    1
    11     3     2    1
    12     2     1    1
    13     1    16    1
    14    16    17    1
    15    17    18    1
    16    18    19    1
    17    19    20    1
    18    20    21    1
    19    21    22    1
    20    22    23    1
    21    23    24    1
    22    24    25   ar
    23    25    26   ar
    24    26    27   ar
    25    27    28   ar
    26    28    29   ar
    27    20    30    1
    28     7     8   ar
    29     8     9    1
    30    15    11   ar
    31     8     4   ar
    32    30    17    1
    33    29    20    1
    34    29    24   ar
@<TRIPOS>MOLECULE
*****
 30 34 0 0 0
SMALL
GASTEIGER

@<TRIPOS>ATOM
      1 C         139.8984  137.5936  163.0095 C.3     1  UNL1        0.0294
      2 C         138.4585  137.8258  162.6590 C.3     1  UNL1        0.0666
      3 S         138.0969  138.8118  161.5879 S.3     1  UNL1       -0.0756
      4 C         138.5206  142.6487  161.9936 C.ar    1  UNL1        0.2029
      5 N         137.2910  142.4041  162.8170 N.ar    1  UNL1       -0.1250
      6 N         136.9826  140.9372  162.7653 N.ar    1  UNL1       -0.1220
      7 C         138.0217  140.2749  161.9099 C.ar    1  UNL1        0.1933
      8 N         138.9723  141.3327  161.4329 N.ar    1  UNL1       -0.2860
      9 C         140.1650  141.1132  160.5503 C.3     1  UNL1        0.1341
     10 C         139.4316  144.7531  164.3155 C.3     1  UNL1        0.0556
     11 C         139.6012  144.9433  162.8373 C.ar    1  UNL1        0.1001
     12 N         140.2194  146.1343  162.1669 N.ar    1  UNL1       -0.2085
     13 C         140.1828  145.9031  160.6852 C.ar    1  UNL1        0.2849
     14 O         139.5419  144.5692  160.4400 O.2     1  UNL1       -0.4283
     15 C         139.1825  143.9760  161.7700 C.ar    1  UNL1        0.1964
     16 C         140.8115  138.7609  163.2409 C.3     1  UNL1        0.0730
     17 N         140.8471  139.4308  164.5826 N.3     1  UNL1       -0.2724
     18 C         139.8585  139.2329  165.6933 C.3     1  UNL1        0.0725
     19 C         140.2779  140.0959  166.8463 C.3     1  UNL1        0.0229
     20 C         141.5256  140.8271  166.4482 C.3     1  UNL1        0.0414
     21 C         142.7628  141.4843  165.9121 C.3     1  UNL1        0.0529
     22 C         143.5250  142.4560  166.7635 C.3     1  UNL1        0.2058
     23 O         143.0500  142.7705  168.1511 O.3     1  UNL1       -0.4758
     24 C         141.8127  142.1133  168.6873 C.ar    1  UNL1        0.1345
     25 C         141.3377  142.4279  170.0748 C.ar    1  UNL1        0.0366
     26 C         140.1005  141.7707  170.6110 C.ar    1  UNL1        0.0031
     27 C         139.3384  140.7990  169.7595 C.ar    1  UNL1       -0.0001
     28 C         139.8134  140.4845  168.3720 C.ar    1  UNL1       -0.0012
     29 C         141.0506  141.1416  167.8358 C.ar    1  UNL1        0.0126
     30 C         141.8774  140.4160  165.0492 C.3     1  UNL1        0.0763
@<TRIPOS>BOND
     1    10    11    1
     2    11    12   ar
     3    12    13   ar
     4    13    14   ar
     5    14    15   ar
     6    15     4    1
     7     4     5   ar
     8     5     6   ar
     9     6     7   ar
    10     7     3    1
    11     3     2    1
    12     2     1    1
    13     1    16    1
    14    16    17    1
    15    17    18    1
    16    18    19    1
    17    19    20    1
    18    20    21    1
    19    21    22    1
    20    22    23    1
    21    23    24    1
    22    24    25   ar
    23    25    26   ar
    24    26    27   ar
    25    27    28   ar
    26    28    29   ar
    27    20    30    1
    28     7     8   ar
    29     8     9    1
    30    15    11   ar
    31     8     4   ar
    32    30    17    1
    33    29    20    1
    34    29    24   ar
@<TRIPOS>MOLECULE
*****
 30 34 0 0 0
SMALL
GASTEIGER

@<TRIPOS>ATOM
      1 C         139.9847  138.0206  157.5298 C.3     1  UNL1        0.0294
      2 C         141.4474  138.0687  157.2013 C.3     1  UNL1        0.0666
      3 S         142.4664  137.8844  158.2867 S.3     1  UNL1       -0.0756
      4 C         143.8100  140.5037  160.8164 C.ar    1  UNL1        0.2029
      5 N         143.7795  141.3106  159.5524 N.ar    1  UNL1       -0.1250
      6 N         143.2725  140.4277  158.4509 N.ar    1  UNL1       -0.1220
      7 C         142.9896  139.0750  159.0342 C.ar    1  UNL1        0.1933
      8 N         143.3218  139.1220  160.4962 N.ar    1  UNL1       -0.2860
      9 C         143.1891  137.9866  161.4674 C.3     1  UNL1        0.1341
     10 C         141.9012  140.8949  163.4342 C.3     1  UNL1        0.0556
     11 C         143.3737  141.1724  163.3674 C.ar    1  UNL1        0.1001
     12 N         144.2275  141.6784  164.4921 N.ar    1  UNL1       -0.2085
     13 C         145.6326  141.8113  163.9840 C.ar    1  UNL1        0.2849
     14 O         145.6472  141.3874  162.5452 O.2     1  UNL1       -0.4283
     15 C         144.2512  140.9926  162.1641 C.ar    1  UNL1        0.1964
     16 C         139.3192  139.2057  158.1644 C.3     1  UNL1        0.0730
     17 N         139.1090  139.2417  159.6492 N.3     1  UNL1       -0.2724
     18 C         139.3662  138.1135  160.6037 C.3     1  UNL1        0.0725
     19 C         139.0207  138.5868  161.9845 C.3     1  UNL1        0.0229
     20 C         138.5501  140.0075  161.8835 C.3     1  UNL1        0.0414
     21 C         138.1040  141.4166  161.6277 C.3     1  UNL1        0.0529
     22 C         137.6573  142.2807  162.7695 C.3     1  UNL1        0.2058
     23 O         137.6566  141.7359  164.1670 O.3     1  UNL1       -0.4758
     24 C         138.1027  140.3267  164.4228 C.ar    1  UNL1        0.1345
     25 C         138.1020  139.7818  165.8203 C.ar    1  UNL1        0.0366
     26 C         138.5481  138.3727  166.0760 C.ar    1  UNL1        0.0031
     27 C         138.9949  137.5085  164.9343 C.ar    1  UNL1       -0.0001
     28 C         138.9955  138.0534  163.5368 C.ar    1  UNL1       -0.0012
     29 C         138.5494  139.4625  163.2810 C.ar    1  UNL1        0.0126
     30 C         138.6046  140.4122  160.4401 C.3     1  UNL1        0.0763
@<TRIPOS>BOND
     1    10    11    1
     2    11    12   ar
     3    12    13   ar
     4    13    14   ar
     5    14    15   ar
     6    15     4    1
     7     4     5   ar
     8     5     6   ar
     9     6     7   ar
    10     7     3    1
    11     3     2    1
    12     2     1    1
    13     1    16    1
    14    16    17    1
    15    17    18    1
    16    18    19    1
    17    19    20    1
    18    20    21    1
    19    21    22    1
    20    22    23    1
    21    23    24    1
    22    24    25   ar
    23    25    26   ar
    24    26    27   ar
    25    27    28   ar
    26    28    29   ar
    27    20    30    1
    28     7     8   ar
    29     8     9    1
    30    15    11   ar
    31     8     4   ar
    32    30    17    1
    33    29    20    1
    34    29    24   ar
@<TRIPOS>MOLECULE
*****
 30 34 0 0 0
SMALL
GASTEIGER

@<TRIPOS>ATOM
      1 C         138.6094  137.8618  165.6631 C.3     1  UNL1        0.0294
      2 C         139.2016  137.7027  164.2941 C.3     1  UNL1        0.0666
      3 S         140.6076  137.2036  164.1385 S.3     1  UNL1       -0.0756
      4 C         142.8214  139.3836  161.8121 C.ar    1  UNL1        0.2029
      5 N         143.6319  139.3912  163.0742 N.ar    1  UNL1       -0.1250
      6 N         142.9013  138.5756  164.0993 N.ar    1  UNL1       -0.1220
      7 C         141.6392  138.0638  163.4707 C.ar    1  UNL1        0.1933
      8 N         141.5898  138.5632  162.0572 N.ar    1  UNL1       -0.2860
      9 C         140.5001  138.2901  161.0631 C.3     1  UNL1        0.1341
     10 C         142.0020  142.4316  160.9827 C.3     1  UNL1        0.0556
     11 C         142.8028  141.4760  160.1489 C.ar    1  UNL1        0.1001
     12 N         143.3677  141.7537  158.7873 N.ar    1  UNL1       -0.2085
     13 C         144.0935  140.5243  158.3269 C.ar    1  UNL1        0.2849
     14 O         143.9771  139.4868  159.4041 O.2     1  UNL1       -0.4283
     15 C         143.1795  140.0750  160.5300 C.ar    1  UNL1        0.1964
     16 C         138.3183  139.2321  166.1996 C.3     1  UNL1        0.0730
     17 N         139.0834  140.4162  165.6871 N.3     1  UNL1       -0.2724
     18 C         140.5615  140.6349  165.8185 C.3     1  UNL1        0.0725
     19 C         140.8962  141.9434  165.1659 C.3     1  UNL1        0.0229
     20 C         139.6250  142.5333  164.6312 C.3     1  UNL1        0.0414
     21 C         138.2808  142.9962  164.1529 C.3     1  UNL1        0.0529
     22 C         138.1525  144.3009  163.4240 C.3     1  UNL1        0.2058
     23 O         139.3685  145.1427  163.1734 O.3     1  UNL1       -0.4758
     24 C         140.7128  144.6798  163.6516 C.ar    1  UNL1        0.1345
     25 C         141.9287  145.5216  163.4010 C.ar    1  UNL1        0.0366
     26 C         143.2729  145.0587  163.8792 C.ar    1  UNL1        0.0031
     27 C         143.4012  143.7540  164.6081 C.ar    1  UNL1       -0.0001
     28 C         142.1853  142.9122  164.8588 C.ar    1  UNL1       -0.0012
     29 C         140.8410  143.3751  164.3805 C.ar    1  UNL1        0.0126
     30 C         138.5046  141.5894  164.9533 C.3     1  UNL1        0.0763
@<TRIPOS>BOND
     1    10    11    1
     2    11    12   ar
     3    12    13   ar
     4    13    14   ar
     5    14    15   ar
     6    15     4    1
     7     4     5   ar
     8     5     6   ar
     9     6     7   ar
    10     7     3    1
    11     3     2    1
    12     2     1    1
    13     1    16    1
    14    16    17    1
    15    17    18    1
    16    18    19    1
    17    19    20    1
    18    20    21    1
    19    21    22    1
    20    22    23    1
    21    23    24    1
    22    24    25   ar
    23    25    26   ar
    24    26    27   ar
    25    27    28   ar
    26    28    29   ar
    27    20    30    1
    28     7     8   ar
    29     8     9    1
    30    15    11   ar
    31     8     4   ar
    32    30    17    1
    33    29    20    1
    34    29    24   ar
@<TRIPOS>MOLECULE
*****
 30 34 0 0 0
SMALL
GASTEIGER

@<TRIPOS>ATOM
      1 C         138.0044  140.2580  160.9440 C.3     1  UNL1        0.0294
      2 C         138.0794  138.8286  161.3927 C.3     1  UNL1        0.0666
      3 S         139.4073  138.1350  161.4685 S.3     1  UNL1       -0.0756
      4 C         142.2882  139.9045  163.3750 C.ar    1  UNL1        0.2029
      5 N         141.8645  138.8752  164.3804 N.ar    1  UNL1       -0.1250
      6 N         140.7338  138.0871  163.7887 N.ar    1  UNL1       -0.1220
      7 C         140.4586  138.6293  162.4174 C.ar    1  UNL1        0.1933
      8 N         141.4193  139.7525  162.1618 N.ar    1  UNL1       -0.2860
      9 C         141.4974  140.5788  160.9123 C.3     1  UNL1        0.1341
     10 C         145.2946  139.2836  164.4820 C.3     1  UNL1        0.0556
     11 C         144.7696  140.6239  164.0605 C.ar    1  UNL1        0.1001
     12 N         145.5343  141.9143  164.0739 N.ar    1  UNL1       -0.2085
     13 C         144.6251  142.9973  163.5734 C.ar    1  UNL1        0.2849
     14 O         143.2984  142.3762  163.2506 O.2     1  UNL1       -0.4283
     15 C         143.3877  140.9094  163.5517 C.ar    1  UNL1        0.1964
     16 C         137.7247  141.3433  161.9410 C.3     1  UNL1        0.0730
     17 N         138.3514  141.2902  163.3027 N.3     1  UNL1       -0.2724
     18 C         139.4406  142.1894  163.8077 C.3     1  UNL1        0.0725
     19 C         139.7612  141.7835  165.2157 C.3     1  UNL1        0.0229
     20 C         138.8701  140.6335  165.5810 C.3     1  UNL1        0.0414
     21 C         137.9184  139.4953  165.8019 C.3     1  UNL1        0.0529
     22 C         137.9016  138.7764  167.1183 C.3     1  UNL1        0.2058
     23 O         138.8364  139.1957  168.2138 O.3     1  UNL1       -0.4758
     24 C         139.7882  140.3338  167.9929 C.ar    1  UNL1        0.1345
     25 C         140.7231  140.7531  169.0884 C.ar    1  UNL1        0.0366
     26 C         141.6748  141.8912  168.8675 C.ar    1  UNL1        0.0031
     27 C         141.6917  142.6101  167.5512 C.ar    1  UNL1       -0.0001
     28 C         140.7568  142.1909  166.4556 C.ar    1  UNL1       -0.0012
     29 C         139.8051  141.0528  166.6765 C.ar    1  UNL1        0.0126
     30 C         137.9988  140.3286  164.3987 C.3     1  UNL1        0.0763
@<TRIPOS>BOND
     1    10    11    1
     2    11    12   ar
     3    12    13   ar
     4    13    14   ar
     5    14    15   ar
     6    15     4    1
     7     4     5   ar
     8     5     6   ar
     9     6     7   ar
    10     7     3    1
    11     3     2    1
    12     2     1    1
    13     1    16    1
    14    16    17    1
    15    17    18    1
    16    18    19    1
    17    19    20    1
    18    20    21    1
    19    21    22    1
    20    22    23    1
    21    23    24    1
    22    24    25   ar
    23    25    26   ar
    24    26    27   ar
    25    27    28   ar
    26    28    29   ar
    27    20    30    1
    28     7     8   ar
    29     8     9    1
    30    15    11   ar
    31     8     4   ar
    32    30    17    1
    33    29    20    1
    34    29    24   ar
@<TRIPOS>MOLECULE
*****
 30 34 0 0 0
SMALL
GASTEIGER

@<TRIPOS>ATOM
      1 C         143.1818  139.1479  159.5989 C.3     1  UNL1        0.0294
      2 C         143.8386  138.3961  160.7185 C.3     1  UNL1        0.0666
      3 S         143.0461  138.0188  161.9350 S.3     1  UNL1       -0.0756
      4 C         142.9398  139.5645  165.4938 C.ar    1  UNL1        0.2029
      5 N         143.9811  140.4211  164.8366 N.ar    1  UNL1       -0.1250
      6 N         144.1477  139.9464  163.4236 N.ar    1  UNL1       -0.1220
      7 C         143.2093  138.7963  163.2073 C.ar    1  UNL1        0.1933
      8 N         142.4628  138.5603  164.4868 N.ar    1  UNL1       -0.2860
      9 C         141.4220  137.5053  164.7186 C.3     1  UNL1        0.1341
     10 C         140.3716  141.3078  166.5009 C.3     1  UNL1        0.0556
     11 C         141.2793  140.4913  167.3722 C.ar    1  UNL1        0.1001
     12 N         141.1659  140.3328  168.8595 N.ar    1  UNL1       -0.2085
     13 C         142.2763  139.4334  169.3158 C.ar    1  UNL1        0.2849
     14 O         143.0760  139.0362  168.1105 O.2     1  UNL1       -0.4283
     15 C         142.4598  139.6900  166.9093 C.ar    1  UNL1        0.1964
     16 C         143.1822  140.6479  159.6012 C.3     1  UNL1        0.0730
     17 N         142.3413  141.3965  160.5925 N.3     1  UNL1       -0.2724
     18 C         140.9240  141.0772  160.9656 C.3     1  UNL1        0.0725
     19 C         140.4770  142.0792  161.9884 C.3     1  UNL1        0.0229
     20 C         141.6180  143.0178  162.2474 C.3     1  UNL1        0.0414
     21 C         142.8406  143.8730  162.4014 C.3     1  UNL1        0.0529
     22 C         142.8311  145.0303  163.3556 C.3     1  UNL1        0.2058
     23 O         141.5989  145.3325  164.1558 O.3     1  UNL1       -0.4758
     24 C         140.3762  144.4773  164.0019 C.ar    1  UNL1        0.1345
     25 C         139.1440  144.7794  164.8021 C.ar    1  UNL1        0.0366
     26 C         137.9214  143.9242  164.6481 C.ar    1  UNL1        0.0031
     27 C         137.9309  142.7669  163.6939 C.ar    1  UNL1       -0.0001
     28 C         139.1631  142.4648  162.8937 C.ar    1  UNL1       -0.0012
     29 C         140.3857  143.3199  163.0477 C.ar    1  UNL1        0.0126
     30 C         142.7702  142.5958  161.3847 C.3     1  UNL1        0.0763
@<TRIPOS>BOND
     1    10    11    1
     2    11    12   ar
     3    12    13   ar
     4    13    14   ar
     5    14    15   ar
     6    15     4    1
     7     4     5   ar
     8     5     6   ar
     9     6     7   ar
    10     7     3    1
    11     3     2    1
    12     2     1    1
    13     1    16    1
    14    16    17    1
    15    17    18    1
    16    18    19    1
    17    19    20    1
    18    20    21    1
    19    21    22    1
    20    22    23    1
    21    23    24    1
    22    24    25   ar
    23    25    26   ar
    24    26    27   ar
    25    27    28   ar
    26    28    29   ar
    27    20    30    1
    28     7     8   ar
    29     8     9    1
    30    15    11   ar
    31     8     4   ar
    32    30    17    1
    33    29    20    1
    34    29    24   ar
