@<TRIPOS>MOLECULE
*****
 33 38 0 0 0
SMALL
GASTEIGER

@<TRIPOS>ATOM
      1 C         143.5943  134.8517  156.5146 C.ar    1  UNL1        0.1640
      2 N         142.9609  135.8678  157.4181 N.ar    1  UNL1       -0.2220
      3 C         143.0820  137.2111  156.7618 C.ar    1  UNL1        0.1344
      4 C         142.6388  138.5796  157.1871 C.ar    1  UNL1        0.1049
      5 C         142.9039  139.7622  156.3032 C.ar    1  UNL1        0.0392
      6 C         143.6121  139.5764  154.9940 C.ar    1  UNL1        0.0751
      7 N         144.0553  138.2079  154.5688 N.ar    1  UNL1       -0.3361
      8 C         143.7902  137.0253  155.4526 C.ar    1  UNL1        0.1615
      9 N         144.1069  135.5671  155.2998 N.ar    1  UNL1       -0.2081
     10 H         144.5201  138.0859  153.7095 H       1  UNL1        0.1675
     11 C         141.5173  128.7901  155.5537 C.3     1  UNL1        0.1305
     12 N         141.7775  130.2669  155.5863 N.ar    1  UNL1       -0.3240
     13 C         141.0132  131.3138  154.8313 C.ar    1  UNL1        0.0760
     14 C         141.6112  132.6501  155.1580 C.ar    1  UNL1        0.0202
     15 C         142.7451  132.4291  156.1149 C.ar    1  UNL1        0.0202
     16 C         143.6972  133.3788  156.7793 C.ar    1  UNL1        0.0373
     17 C         144.7521  132.8556  157.7085 C.ar    1  UNL1        0.0031
     18 C         144.8549  131.3828  157.9732 C.ar    1  UNL1        0.0016
     19 C         143.9028  130.4331  157.3087 C.ar    1  UNL1        0.0172
     20 C         142.8479  130.9563  156.3795 C.ar    1  UNL1        0.0601
     21 N         141.9306  138.7655  158.4962 N.ar    1  UNL1       -0.2268
     22 C         142.5165  139.3704  159.7375 C.ar    1  UNL1        0.0991
     23 C         141.4601  139.3578  160.8023 C.ar    1  UNL1        0.0339
     24 C         140.2213  138.7453  160.2191 C.ar    1  UNL1        0.1191
     25 N         140.5121  138.3792  158.7938 N.ar    1  UNL1       -0.1637
     26 C         141.6153  139.8683  162.2043 C.3     1  UNL1        0.1024
     27 N         142.9845  140.0424  162.7918 N.3     1  UNL1       -0.2667
     28 C         143.6433  139.1255  163.7793 C.3     1  UNL1        0.0750
     29 C         145.0011  139.6805  164.0927 C.3     1  UNL1        0.0480
     30 C         145.1816  140.9403  163.2988 C.3     1  UNL1        0.1278
     31 O         146.3954  141.8217  163.3074 O.3     1  UNL1       -0.3830
     32 C         143.9352  141.1640  162.4947 C.3     1  UNL1        0.1020
     33 H         147.0586  141.4526  163.9114 H       1  UNL1        0.2104
@<TRIPOS>BOND
     1    11    12    1
     2    12    13   ar
     3    13    14   ar
     4    14    15   ar
     5    15    16   ar
     6    16     1    1
     7     1     2   ar
     8     2     3   ar
     9     3     4   ar
    10     4    21    1
    11    21    22   ar
    12    22    23   ar
    13    23    26    1
    14    26    27    1
    15    27    28    1
    16    28    29    1
    17    29    30    1
    18    30    31    1
    19    30    32    1
    20    23    24   ar
    21    24    25   ar
    22     4     5   ar
    23     5     6   ar
    24     6     7   ar
    25     7     8   ar
    26     8     9   ar
    27    16    17   ar
    28    17    18   ar
    29    18    19   ar
    30    19    20   ar
    31    20    12   ar
    32    20    15   ar
    33     9     1   ar
    34     8     3    1
    35    25    21   ar
    36    32    27    1
    37    31    33    1
    38     7    10    1
@<TRIPOS>MOLECULE
*****
 33 38 0 0 0
SMALL
GASTEIGER

@<TRIPOS>ATOM
      1 C         142.7174  135.4885  156.4107 C.ar    1  UNL1        0.1640
      2 N         142.6282  136.1553  157.7514 N.ar    1  UNL1       -0.2220
      3 C         142.9302  137.6127  157.5652 C.ar    1  UNL1        0.1344
      4 C         142.9897  138.7570  158.5332 C.ar    1  UNL1        0.1049
      5 C         143.3251  140.1353  158.0453 C.ar    1  UNL1        0.0392
      6 C         143.6010  140.3692  156.5896 C.ar    1  UNL1        0.0751
      7 N         143.5416  139.2249  155.6217 N.ar    1  UNL1       -0.3361
      8 C         143.2062  137.8466  156.1094 C.ar    1  UNL1        0.1615
      9 N         143.0747  136.5338  155.3960 N.ar    1  UNL1       -0.2081
     10 H         143.7227  139.3784  154.6662 H       1  UNL1        0.1675
     11 C         144.3279  129.2685  157.2468 C.3     1  UNL1        0.1305
     12 N         144.1860  130.7617  157.2374 N.ar    1  UNL1       -0.3240
     13 C         145.0526  131.7344  157.9811 C.ar    1  UNL1        0.0760
     14 C         144.5549  133.1182  157.6861 C.ar    1  UNL1        0.0202
     15 C         143.3806  133.0008  156.7600 C.ar    1  UNL1        0.0202
     16 C         142.4895  134.0320  156.1334 C.ar    1  UNL1        0.0373
     17 C         141.3704  133.6067  155.2297 C.ar    1  UNL1        0.0031
     18 C         141.1425  132.1503  154.9524 C.ar    1  UNL1        0.0016
     19 C         142.0337  131.1192  155.5790 C.ar    1  UNL1        0.0172
     20 C         143.1527  131.5444  156.4828 C.ar    1  UNL1        0.0601
     21 N         142.7138  138.5232  159.9889 N.ar    1  UNL1       -0.2268
     22 C         141.3793  138.1993  160.5924 C.ar    1  UNL1        0.0991
     23 C         141.5647  138.0481  162.0731 C.ar    1  UNL1        0.0339
     24 C         143.0137  138.2784  162.3848 C.ar    1  UNL1        0.1191
     25 N         143.7239  138.5720  161.0966 N.ar    1  UNL1       -0.1637
     26 C         140.4897  137.7235  163.0677 C.3     1  UNL1        0.1024
     27 N         139.5398  138.7923  163.5210 N.3     1  UNL1       -0.2667
     28 C         139.5058  139.4223  164.8818 C.3     1  UNL1        0.0750
     29 C         138.4022  140.4381  164.8949 C.3     1  UNL1        0.0480
     30 C         137.7541  140.4358  163.5421 C.3     1  UNL1        0.1278
     31 O         136.6047  141.2993  163.1137 O.3     1  UNL1       -0.3830
     32 C         138.4572  139.4187  162.6930 C.3     1  UNL1        0.1020
     33 H         136.3362  141.8695  163.8510 H       1  UNL1        0.2104
@<TRIPOS>BOND
     1    11    12    1
     2    12    13   ar
     3    13    14   ar
     4    14    15   ar
     5    15    16   ar
     6    16     1    1
     7     1     2   ar
     8     2     3   ar
     9     3     4   ar
    10     4    21    1
    11    21    22   ar
    12    22    23   ar
    13    23    26    1
    14    26    27    1
    15    27    28    1
    16    28    29    1
    17    29    30    1
    18    30    31    1
    19    30    32    1
    20    23    24   ar
    21    24    25   ar
    22     4     5   ar
    23     5     6   ar
    24     6     7   ar
    25     7     8   ar
    26     8     9   ar
    27    16    17   ar
    28    17    18   ar
    29    18    19   ar
    30    19    20   ar
    31    20    12   ar
    32    20    15   ar
    33     9     1   ar
    34     8     3    1
    35    25    21   ar
    36    32    27    1
    37    31    33    1
    38     7    10    1
@<TRIPOS>MOLECULE
*****
 33 38 0 0 0
SMALL
GASTEIGER

@<TRIPOS>ATOM
      1 C         139.4449  142.4249  164.3128 C.ar    1  UNL1        0.1640
      2 N         140.5397  142.4269  163.2875 N.ar    1  UNL1       -0.2220
      3 C         140.3865  143.6606  162.4481 C.ar    1  UNL1        0.1344
      4 C         141.1765  144.1898  161.2880 C.ar    1  UNL1        0.1049
      5 C         140.7768  145.4795  160.6344 C.ar    1  UNL1        0.0392
      6 C         139.5873  146.2399  161.1409 C.ar    1  UNL1        0.0751
      7 N         138.7973  145.7107  162.3011 N.ar    1  UNL1       -0.3361
      8 C         139.1969  144.4211  162.9546 C.ar    1  UNL1        0.1615
      9 N         138.6149  143.6574  164.1071 N.ar    1  UNL1       -0.2081
     10 H         138.0165  146.2098  162.6335 H       1  UNL1        0.1675
     11 C         140.5953  140.0038  170.2115 C.3     1  UNL1        0.1305
     12 N         140.5193  140.7805  168.9305 N.ar    1  UNL1       -0.3240
     13 C         141.2540  142.0522  168.6256 C.ar    1  UNL1        0.0760
     14 C         140.8840  142.4795  167.2362 C.ar    1  UNL1        0.0202
     15 C         139.9206  141.4718  166.6825 C.ar    1  UNL1        0.0202
     16 C         139.2194  141.3748  165.3600 C.ar    1  UNL1        0.0373
     17 C         138.2929  140.2278  165.0846 C.ar    1  UNL1        0.0031
     18 C         138.0676  139.1778  166.1318 C.ar    1  UNL1        0.0016
     19 C         138.7687  139.2748  167.4543 C.ar    1  UNL1        0.0172
     20 C         139.6952  140.4218  167.7296 C.ar    1  UNL1        0.0601
     21 N         142.3660  143.4294  160.7814 N.ar    1  UNL1       -0.2268
     22 C         142.3637  142.4340  159.6592 C.ar    1  UNL1        0.0991
     23 C         143.7630  141.9203  159.4924 C.ar    1  UNL1        0.0339
     24 C         144.6302  142.5981  160.5115 C.ar    1  UNL1        0.1191
     25 N         143.7668  143.5308  161.3081 N.ar    1  UNL1       -0.1637
     26 C         144.2157  140.9066  158.4836 C.3     1  UNL1        0.1024
     27 N         143.5855  139.5458  158.4530 N.3     1  UNL1       -0.2667
     28 C         143.3115  138.6741  159.6426 C.3     1  UNL1        0.0750
     29 C         142.6753  137.4073  159.1522 C.3     1  UNL1        0.0480
     30 C         142.5560  137.4960  157.6596 C.3     1  UNL1        0.1278
     31 O         141.9761  136.4472  156.7575 O.3     1  UNL1       -0.3830
     32 C         143.1186  138.8177  157.2274 C.3     1  UNL1        0.1020
     33 H         141.6841  135.6897  157.2884 H       1  UNL1        0.2104
@<TRIPOS>BOND
     1    11    12    1
     2    12    13   ar
     3    13    14   ar
     4    14    15   ar
     5    15    16   ar
     6    16     1    1
     7     1     2   ar
     8     2     3   ar
     9     3     4   ar
    10     4    21    1
    11    21    22   ar
    12    22    23   ar
    13    23    26    1
    14    26    27    1
    15    27    28    1
    16    28    29    1
    17    29    30    1
    18    30    31    1
    19    30    32    1
    20    23    24   ar
    21    24    25   ar
    22     4     5   ar
    23     5     6   ar
    24     6     7   ar
    25     7     8   ar
    26     8     9   ar
    27    16    17   ar
    28    17    18   ar
    29    18    19   ar
    30    19    20   ar
    31    20    12   ar
    32    20    15   ar
    33     9     1   ar
    34     8     3    1
    35    25    21   ar
    36    32    27    1
    37    31    33    1
    38     7    10    1
@<TRIPOS>MOLECULE
*****
 33 38 0 0 0
SMALL
GASTEIGER

@<TRIPOS>ATOM
      1 C         139.7494  145.8341  155.8110 C.ar    1  UNL1        0.1640
      2 N         139.9648  145.7208  157.2911 N.ar    1  UNL1       -0.2220
      3 C         139.7567  144.2875  157.6815 C.ar    1  UNL1        0.1344
      4 C         139.8360  143.5861  159.0050 C.ar    1  UNL1        0.1049
      5 C         139.5713  142.1120  159.0896 C.ar    1  UNL1        0.0392
      6 C         139.2274  141.3394  157.8507 C.ar    1  UNL1        0.0751
      7 N         139.1481  142.0409  156.5272 N.ar    1  UNL1       -0.3361
      8 C         139.4127  143.5149  156.4426 C.ar    1  UNL1        0.1615
      9 N         139.4082  144.4707  155.2866 N.ar    1  UNL1       -0.2081
     10 H         138.9224  141.5338  155.7141 H       1  UNL1        0.1675
     11 C         138.5629  152.1534  155.0117 C.3     1  UNL1        0.1305
     12 N         138.6921  150.7268  155.4568 N.ar    1  UNL1       -0.3240
     13 C         138.1662  150.1521  156.7387 C.ar    1  UNL1        0.0760
     14 C         138.5189  148.6945  156.7723 C.ar    1  UNL1        0.0202
     15 C         139.2627  148.3685  155.5111 C.ar    1  UNL1        0.0202
     16 C         139.8564  147.0901  154.9979 C.ar    1  UNL1        0.0373
     17 C         140.5571  147.0677  153.6719 C.ar    1  UNL1        0.0031
     18 C         140.6641  148.3238  152.8589 C.ar    1  UNL1        0.0016
     19 C         140.0704  149.6021  153.3720 C.ar    1  UNL1        0.0172
     20 C         139.3697  149.6245  154.6981 C.ar    1  UNL1        0.0601
     21 N         140.1799  144.3586  160.2438 N.ar    1  UNL1       -0.2268
     22 C         141.2691  144.0222  161.2188 C.ar    1  UNL1        0.0991
     23 C         141.2574  145.0589  162.3027 C.ar    1  UNL1        0.0339
     24 C         140.1609  146.0361  161.9978 C.ar    1  UNL1        0.1191
     25 N         139.4950  145.6032  160.7253 N.ar    1  UNL1       -0.1637
     26 C         142.1801  145.1096  163.4843 C.3     1  UNL1        0.1024
     27 N         143.1261  143.9753  163.7463 N.3     1  UNL1       -0.2667
     28 C         142.9643  142.9171  164.7971 C.3     1  UNL1        0.0750
     29 C         144.1381  141.9879  164.7037 C.3     1  UNL1        0.0480
     30 C         145.0254  142.4718  163.5952 C.3     1  UNL1        0.1278
     31 O         146.3122  141.8385  163.1556 O.3     1  UNL1       -0.3830
     32 C         144.3999  143.7001  163.0035 C.3     1  UNL1        0.1020
     33 H         146.4909  141.0569  163.7015 H       1  UNL1        0.2104
@<TRIPOS>BOND
     1    11    12    1
     2    12    13   ar
     3    13    14   ar
     4    14    15   ar
     5    15    16   ar
     6    16     1    1
     7     1     2   ar
     8     2     3   ar
     9     3     4   ar
    10     4    21    1
    11    21    22   ar
    12    22    23   ar
    13    23    26    1
    14    26    27    1
    15    27    28    1
    16    28    29    1
    17    29    30    1
    18    30    31    1
    19    30    32    1
    20    23    24   ar
    21    24    25   ar
    22     4     5   ar
    23     5     6   ar
    24     6     7   ar
    25     7     8   ar
    26     8     9   ar
    27    16    17   ar
    28    17    18   ar
    29    18    19   ar
    30    19    20   ar
    31    20    12   ar
    32    20    15   ar
    33     9     1   ar
    34     8     3    1
    35    25    21   ar
    36    32    27    1
    37    31    33    1
    38     7    10    1
@<TRIPOS>MOLECULE
*****
 33 38 0 0 0
SMALL
GASTEIGER

@<TRIPOS>ATOM
      1 C         142.9819  135.0287  156.0686 C.ar    1  UNL1        0.1640
      2 N         142.3105  136.0033  156.9901 N.ar    1  UNL1       -0.2220
      3 C         142.9512  137.3451  156.7923 C.ar    1  UNL1        0.1344
      4 C         142.7006  138.6805  157.4277 C.ar    1  UNL1        0.1049
      5 C         143.5174  139.8706  157.0193 C.ar    1  UNL1        0.0392
      6 C         144.5848  139.7251  155.9755 C.ar    1  UNL1        0.0751
      7 N         144.8354  138.3897  155.3401 N.ar    1  UNL1       -0.3361
      8 C         144.0186  137.1997  155.7484 C.ar    1  UNL1        0.1615
      9 N         144.0376  135.7681  155.3012 N.ar    1  UNL1       -0.2081
     10 H         145.5359  138.2943  154.6550 H       1  UNL1        0.1675
     11 C         144.1484  128.8312  157.5558 C.3     1  UNL1        0.1305
     12 N         144.1111  130.3218  157.3927 N.ar    1  UNL1       -0.3240
     13 C         145.0377  131.3038  158.0463 C.ar    1  UNL1        0.0760
     14 C         144.6399  132.6810  157.6049 C.ar    1  UNL1        0.0202
     15 C         143.4674  132.5502  156.6785 C.ar    1  UNL1        0.0202
     16 C         142.6551  133.5705  155.9374 C.ar    1  UNL1        0.0373
     17 C         141.5160  133.1328  155.0652 C.ar    1  UNL1        0.0031
     18 C         141.1892  131.6747  154.9341 C.ar    1  UNL1        0.0016
     19 C         142.0015  130.6544  155.6752 C.ar    1  UNL1        0.0172
     20 C         143.1406  131.0922  156.5474 C.ar    1  UNL1        0.0601
     21 N         141.6333  138.8259  158.4715 N.ar    1  UNL1       -0.2268
     22 C         140.3381  139.5655  158.3112 C.ar    1  UNL1        0.0991
     23 C         139.5781  139.4539  159.5995 C.ar    1  UNL1        0.0339
     24 C         140.4035  138.6455  160.5561 C.ar    1  UNL1        0.1191
     25 N         141.6736  138.2573  159.8590 N.ar    1  UNL1       -0.1637
     26 C         138.2294  140.0468  159.8817 C.3     1  UNL1        0.1024
     27 N         138.0655  141.0438  160.9905 N.3     1  UNL1       -0.2667
     28 C         138.2862  142.5237  160.8853 C.3     1  UNL1        0.0750
     29 C         138.0092  143.1303  162.2289 C.3     1  UNL1        0.0480
     30 C         137.6173  142.0252  163.1645 C.3     1  UNL1        0.1278
     31 O         137.2544  142.1823  164.6115 O.3     1  UNL1       -0.3830
     32 C         137.6521  140.7357  162.3992 C.3     1  UNL1        0.1020
     33 H         137.3107  143.1184  164.8592 H       1  UNL1        0.2104
@<TRIPOS>BOND
     1    11    12    1
     2    12    13   ar
     3    13    14   ar
     4    14    15   ar
     5    15    16   ar
     6    16     1    1
     7     1     2   ar
     8     2     3   ar
     9     3     4   ar
    10     4    21    1
    11    21    22   ar
    12    22    23   ar
    13    23    26    1
    14    26    27    1
    15    27    28    1
    16    28    29    1
    17    29    30    1
    18    30    31    1
    19    30    32    1
    20    23    24   ar
    21    24    25   ar
    22     4     5   ar
    23     5     6   ar
    24     6     7   ar
    25     7     8   ar
    26     8     9   ar
    27    16    17   ar
    28    17    18   ar
    29    18    19   ar
    30    19    20   ar
    31    20    12   ar
    32    20    15   ar
    33     9     1   ar
    34     8     3    1
    35    25    21   ar
    36    32    27    1
    37    31    33    1
    38     7    10    1
@<TRIPOS>MOLECULE
*****
 33 38 0 0 0
SMALL
GASTEIGER

@<TRIPOS>ATOM
      1 C         142.4917  134.4968  155.5924 C.ar    1  UNL1        0.1640
      2 N         142.2590  135.4410  156.7345 N.ar    1  UNL1       -0.2220
      3 C         142.5584  136.8306  156.2555 C.ar    1  UNL1        0.1344
      4 C         142.5046  138.1626  156.9431 C.ar    1  UNL1        0.1049
      5 C         142.8685  139.4093  156.1924 C.ar    1  UNL1        0.0392
      6 C         143.2861  139.3240  154.7543 C.ar    1  UNL1        0.0751
      7 N         143.3398  137.9919  154.0667 N.ar    1  UNL1       -0.3361
      8 C         142.9760  136.7453  154.8173 C.ar    1  UNL1        0.1615
      9 N         142.9348  135.3029  154.4075 N.ar    1  UNL1       -0.2081
     10 H         143.6139  137.9359  153.1228 H       1  UNL1        0.1675
     11 C         144.2806  128.6519  157.7411 C.3     1  UNL1        0.1305
     12 N         144.0930  130.1037  157.4141 N.ar    1  UNL1       -0.3240
     13 C         144.9185  131.2400  157.9410 C.ar    1  UNL1        0.0760
     14 C         144.3827  132.5127  157.3553 C.ar    1  UNL1        0.0202
     15 C         143.2260  132.1630  156.4665 C.ar    1  UNL1        0.0202
     16 C         142.3126  133.0080  155.6288 C.ar    1  UNL1        0.0373
     17 C         141.2203  132.3641  154.8274 C.ar    1  UNL1        0.0031
     18 C         141.0413  130.8753  154.8638 C.ar    1  UNL1        0.0016
     19 C         141.9547  130.0303  155.7015 C.ar    1  UNL1        0.0172
     20 C         143.0470  130.6742  156.5029 C.ar    1  UNL1        0.0601
     21 N         142.0870  138.2480  158.3812 N.ar    1  UNL1       -0.2268
     22 C         142.9634  137.9890  159.5707 C.ar    1  UNL1        0.0991
     23 C         142.1376  138.1883  160.8070 C.ar    1  UNL1        0.0339
     24 C         140.7510  138.5705  160.3816 C.ar    1  UNL1        0.1191
     25 N         140.7196  138.6074  158.8824 N.ar    1  UNL1       -0.1637
     26 C         142.6149  138.0327  162.2205 C.3     1  UNL1        0.1024
     27 N         143.5890  139.0177  162.7959 N.3     1  UNL1       -0.2667
     28 C         144.0517  139.0699  164.2218 C.3     1  UNL1        0.0750
     29 C         145.0200  140.2079  164.3535 C.3     1  UNL1        0.0480
     30 C         145.1556  140.8591  163.0091 C.3     1  UNL1        0.1278
     31 O         146.0234  142.0388  162.6844 O.3     1  UNL1       -0.3830
     32 C         144.2712  140.1236  162.0464 C.3     1  UNL1        0.1020
     33 H         146.4926  142.3249  163.4837 H       1  UNL1        0.2104
@<TRIPOS>BOND
     1    11    12    1
     2    12    13   ar
     3    13    14   ar
     4    14    15   ar
     5    15    16   ar
     6    16     1    1
     7     1     2   ar
     8     2     3   ar
     9     3     4   ar
    10     4    21    1
    11    21    22   ar
    12    22    23   ar
    13    23    26    1
    14    26    27    1
    15    27    28    1
    16    28    29    1
    17    29    30    1
    18    30    31    1
    19    30    32    1
    20    23    24   ar
    21    24    25   ar
    22     4     5   ar
    23     5     6   ar
    24     6     7   ar
    25     7     8   ar
    26     8     9   ar
    27    16    17   ar
    28    17    18   ar
    29    18    19   ar
    30    19    20   ar
    31    20    12   ar
    32    20    15   ar
    33     9     1   ar
    34     8     3    1
    35    25    21   ar
    36    32    27    1
    37    31    33    1
    38     7    10    1
@<TRIPOS>MOLECULE
*****
 33 38 0 0 0
SMALL
GASTEIGER

@<TRIPOS>ATOM
      1 C         139.9606  144.2148  160.8996 C.ar    1  UNL1        0.1640
      2 N         139.2367  143.8520  159.6370 N.ar    1  UNL1       -0.2220
      3 C         140.0305  144.3807  158.4793 C.ar    1  UNL1        0.1344
      4 C         139.8043  144.3234  156.9975 C.ar    1  UNL1        0.1049
      5 C         140.7926  144.9557  156.0630 C.ar    1  UNL1        0.0392
      6 C         142.0071  145.6453  156.6101 C.ar    1  UNL1        0.0751
      7 N         142.2333  145.7026  158.0918 N.ar    1  UNL1       -0.3361
      8 C         141.2450  145.0704  159.0264 C.ar    1  UNL1        0.1615
      9 N         141.2018  144.9678  160.5223 N.ar    1  UNL1       -0.2081
     10 H         143.0304  146.1553  158.4510 H       1  UNL1        0.1675
     11 C         138.2764  139.8665  165.3982 C.3     1  UNL1        0.1305
     12 N         138.6992  140.6328  164.1799 N.ar    1  UNL1       -0.3240
     13 C         139.0469  140.0442  162.8448 C.ar    1  UNL1        0.0760
     14 C         139.4111  141.1698  161.9227 C.ar    1  UNL1        0.0202
     15 C         139.2885  142.4541  162.6880 C.ar    1  UNL1        0.0202
     16 C         139.5206  143.8829  162.2948 C.ar    1  UNL1        0.0373
     17 C         139.3127  144.9798  163.2966 C.ar    1  UNL1        0.0031
     18 C         138.8727  144.6478  164.6916 C.ar    1  UNL1        0.0016
     19 C         138.6406  143.2190  165.0848 C.ar    1  UNL1        0.0172
     20 C         138.8485  142.1221  164.0830 C.ar    1  UNL1        0.0601
     21 N         138.5898  143.6338  156.4504 N.ar    1  UNL1       -0.2268
     22 C         138.2228  142.1947  156.6615 C.ar    1  UNL1        0.0991
     23 C         136.9353  141.9338  155.9376 C.ar    1  UNL1        0.0339
     24 C         136.5064  143.2115  155.2792 C.ar    1  UNL1        0.1191
     25 N         137.5290  144.2621  155.5961 N.ar    1  UNL1       -0.1637
     26 C         136.2048  140.6248  155.8820 C.3     1  UNL1        0.1024
     27 N         134.7194  140.5856  156.0872 N.3     1  UNL1       -0.2667
     28 C         133.6928  141.2671  155.2318 C.3     1  UNL1        0.0750
     29 C         132.3388  140.9607  155.7998 C.3     1  UNL1        0.0480
     30 C         132.5285  140.0897  157.0062 C.3     1  UNL1        0.1278
     31 O         131.4382  139.5460  157.8813 O.3     1  UNL1       -0.3830
     32 C         133.9997  139.8578  157.1839 C.3     1  UNL1        0.1020
     33 H         130.5773  139.8443  157.5484 H       1  UNL1        0.2104
@<TRIPOS>BOND
     1    11    12    1
     2    12    13   ar
     3    13    14   ar
     4    14    15   ar
     5    15    16   ar
     6    16     1    1
     7     1     2   ar
     8     2     3   ar
     9     3     4   ar
    10     4    21    1
    11    21    22   ar
    12    22    23   ar
    13    23    26    1
    14    26    27    1
    15    27    28    1
    16    28    29    1
    17    29    30    1
    18    30    31    1
    19    30    32    1
    20    23    24   ar
    21    24    25   ar
    22     4     5   ar
    23     5     6   ar
    24     6     7   ar
    25     7     8   ar
    26     8     9   ar
    27    16    17   ar
    28    17    18   ar
    29    18    19   ar
    30    19    20   ar
    31    20    12   ar
    32    20    15   ar
    33     9     1   ar
    34     8     3    1
    35    25    21   ar
    36    32    27    1
    37    31    33    1
    38     7    10    1
@<TRIPOS>MOLECULE
*****
 33 38 0 0 0
SMALL
GASTEIGER

@<TRIPOS>ATOM
      1 C         142.9157  136.7771  156.0464 C.ar    1  UNL1        0.1640
      2 N         142.2758  137.1069  157.3623 N.ar    1  UNL1       -0.2220
      3 C         142.8344  138.4166  157.8340 C.ar    1  UNL1        0.1344
      4 C         142.5733  139.2345  159.0640 C.ar    1  UNL1        0.1049
      5 C         143.2973  140.5321  159.2696 C.ar    1  UNL1        0.0392
      6 C         144.2825  141.0117  158.2451 C.ar    1  UNL1        0.0751
      7 N         144.5436  140.1938  157.0151 N.ar    1  UNL1       -0.3361
      8 C         143.8196  138.8963  156.8096 C.ar    1  UNL1        0.1615
      9 N         143.8698  137.8830  155.7048 N.ar    1  UNL1       -0.2081
     10 H         145.1901  140.5086  156.3428 H       1  UNL1        0.1675
     11 C         142.7248  130.3333  155.3958 C.3     1  UNL1        0.1305
     12 N         142.8607  131.7640  155.8257 N.ar    1  UNL1       -0.3240
     13 C         143.3019  132.2402  157.1779 C.ar    1  UNL1        0.0760
     14 C         143.2931  133.7401  157.1668 C.ar    1  UNL1        0.0202
     15 C         142.8464  134.1909  155.8075 C.ar    1  UNL1        0.0202
     16 C         142.6485  135.5557  155.2175 C.ar    1  UNL1        0.0373
     17 C         142.1834  135.6992  153.7987 C.ar    1  UNL1        0.0031
     18 C         141.9161  134.4779  152.9699 C.ar    1  UNL1        0.0016
     19 C         142.1141  133.1131  153.5600 C.ar    1  UNL1        0.0172
     20 C         142.5792  132.9696  154.9787 C.ar    1  UNL1        0.0601
     21 N         141.5882  138.7549  160.0884 N.ar    1  UNL1       -0.2268
     22 C         141.9206  138.2339  161.4552 C.ar    1  UNL1        0.0991
     23 C         140.6356  137.8691  162.1374 C.ar    1  UNL1        0.0339
     24 C         139.5089  138.1646  161.1923 C.ar    1  UNL1        0.1191
     25 N         140.0976  138.7121  159.9260 N.ar    1  UNL1       -0.1637
     26 C         140.5008  137.3074  163.5218 C.3     1  UNL1        0.1024
     27 N         139.6310  137.9980  164.5300 N.3     1  UNL1       -0.2667
     28 C         139.5161  139.4805  164.7271 C.3     1  UNL1        0.0750
     29 C         138.5375  139.7261  165.8371 C.3     1  UNL1        0.0480
     30 C         138.0475  138.3953  166.3259 C.3     1  UNL1        0.1278
     31 O         137.0558  138.1718  167.4290 O.3     1  UNL1       -0.3830
     32 C         138.7233  137.3272  165.5181 C.3     1  UNL1        0.1020
     33 H         136.7720  139.0275  167.7869 H       1  UNL1        0.2104
@<TRIPOS>BOND
     1    11    12    1
     2    12    13   ar
     3    13    14   ar
     4    14    15   ar
     5    15    16   ar
     6    16     1    1
     7     1     2   ar
     8     2     3   ar
     9     3     4   ar
    10     4    21    1
    11    21    22   ar
    12    22    23   ar
    13    23    26    1
    14    26    27    1
    15    27    28    1
    16    28    29    1
    17    29    30    1
    18    30    31    1
    19    30    32    1
    20    23    24   ar
    21    24    25   ar
    22     4     5   ar
    23     5     6   ar
    24     6     7   ar
    25     7     8   ar
    26     8     9   ar
    27    16    17   ar
    28    17    18   ar
    29    18    19   ar
    30    19    20   ar
    31    20    12   ar
    32    20    15   ar
    33     9     1   ar
    34     8     3    1
    35    25    21   ar
    36    32    27    1
    37    31    33    1
    38     7    10    1
@<TRIPOS>MOLECULE
*****
 33 38 0 0 0
SMALL
GASTEIGER

@<TRIPOS>ATOM
      1 C         142.7090  143.0440  159.1081 C.ar    1  UNL1        0.1640
      2 N         142.8950  143.0961  160.5955 N.ar    1  UNL1       -0.2220
      3 C         141.9086  144.0797  161.1519 C.ar    1  UNL1        0.1344
      4 C         141.6321  144.5411  162.5521 C.ar    1  UNL1        0.1049
      5 C         140.5599  145.5583  162.8086 C.ar    1  UNL1        0.0392
      6 C         139.7642  146.1140  161.6650 C.ar    1  UNL1        0.0751
      7 N         140.0407  145.6526  160.2647 N.ar    1  UNL1       -0.3361
      8 C         141.1129  144.6355  160.0082 C.ar    1  UNL1        0.1615
      9 N         141.6075  143.9953  158.7451 N.ar    1  UNL1       -0.2081
     10 H         139.5184  146.0174  159.5141 H       1  UNL1        0.1675
     11 C         143.0627  138.0101  155.0441 C.3     1  UNL1        0.1305
     12 N         142.6963  139.0871  156.0217 N.ar    1  UNL1       -0.3240
     13 C         141.3548  139.2734  156.6665 C.ar    1  UNL1        0.0760
     14 C         141.4365  140.4683  157.5695 C.ar    1  UNL1        0.0202
     15 C         142.8285  141.0204  157.4829 C.ar    1  UNL1        0.0202
     16 C         143.4876  142.1903  158.1515 C.ar    1  UNL1        0.0373
     17 C         144.9253  142.5065  157.8635 C.ar    1  UNL1        0.0031
     18 C         145.7039  141.6528  156.9069 C.ar    1  UNL1        0.0016
     19 C         145.0448  140.4830  156.2383 C.ar    1  UNL1        0.0172
     20 C         143.6071  140.1668  156.5263 C.ar    1  UNL1        0.0601
     21 N         142.4278  143.9854  163.6958 N.ar    1  UNL1       -0.2268
     22 C         141.9680  142.9331  164.6608 C.ar    1  UNL1        0.0991
     23 C         143.0791  142.6818  165.6366 C.ar    1  UNL1        0.0339
     24 C         144.2256  143.5788  165.2748 C.ar    1  UNL1        0.1191
     25 N         143.8231  144.3844  164.0752 N.ar    1  UNL1       -0.1637
     26 C         143.0489  141.7050  166.7746 C.3     1  UNL1        0.1024
     27 N         142.4028  142.0864  168.0735 N.3     1  UNL1       -0.2667
     28 C         141.0244  142.6543  168.2393 C.3     1  UNL1        0.0750
     29 C         140.7915  142.8858  169.7029 C.3     1  UNL1        0.0480
     30 C         142.0259  142.4610  170.4417 C.3     1  UNL1        0.1278
     31 O         142.2288  142.5199  171.9268 O.3     1  UNL1       -0.3830
     32 C         143.0218  141.9669  169.4347 C.3     1  UNL1        0.1020
     33 H         141.4321  142.8788  172.3480 H       1  UNL1        0.2104
@<TRIPOS>BOND
     1    11    12    1
     2    12    13   ar
     3    13    14   ar
     4    14    15   ar
     5    15    16   ar
     6    16     1    1
     7     1     2   ar
     8     2     3   ar
     9     3     4   ar
    10     4    21    1
    11    21    22   ar
    12    22    23   ar
    13    23    26    1
    14    26    27    1
    15    27    28    1
    16    28    29    1
    17    29    30    1
    18    30    31    1
    19    30    32    1
    20    23    24   ar
    21    24    25   ar
    22     4     5   ar
    23     5     6   ar
    24     6     7   ar
    25     7     8   ar
    26     8     9   ar
    27    16    17   ar
    28    17    18   ar
    29    18    19   ar
    30    19    20   ar
    31    20    12   ar
    32    20    15   ar
    33     9     1   ar
    34     8     3    1
    35    25    21   ar
    36    32    27    1
    37    31    33    1
    38     7    10    1
