@<TRIPOS>MOLECULE
*****
 29 34 0 0 0
SMALL
GASTEIGER

@<TRIPOS>ATOM
      1 N         139.1052  144.2539  164.8445 N.pl3   1  UNL1       -0.3133
      2 C         138.9039  143.3253  163.6838 C.2     1  UNL1        0.2770
      3 N         138.9036  141.8266  163.7435 N.2     1  UNL1       -0.2204
      4 C         138.6671  141.3075  162.3562 C.3     1  UNL1        0.1537
      5 C         138.5213  142.4855  161.4391 C.3     1  UNL1        0.2350
      6 O         138.6677  143.7325  162.2596 O.2     1  UNL1       -0.4478
      7 C         138.8331  140.2330  163.3896 C.ar    1  UNL1        0.0355
      8 C         139.0763  140.6021  164.8230 C.ar    1  UNL1        0.0005
      9 C         139.2423  139.5276  165.8564 C.ar    1  UNL1       -0.0000
     10 C         139.1652  138.0840  165.4564 C.ar    1  UNL1        0.0029
     11 C         138.9220  137.7149  164.0230 C.ar    1  UNL1        0.0366
     12 C         138.7560  138.7893  162.9896 C.ar    1  UNL1        0.1364
     13 O         138.5128  138.4202  161.5562 O.3     1  UNL1       -0.4756
     14 C         138.3468  139.4947  160.5228 C.3     1  UNL1        0.2074
     15 C         138.4240  140.9383  160.9228 C.3     1  UNL1        0.0666
     16 C         138.3726  142.3921  160.5571 C.3     1  UNL1        0.0061
     17 C         138.1877  141.3456  159.4986 C.3     1  UNL1        0.0061
     18 H         139.2541  143.8891  165.7467 H       1  UNL1        0.1466
     19 H         139.0884  145.2282  164.7042 H       1  UNL1        0.1466
     20 C         139.4855  139.8968  167.2898 C.2     1  UNL1        0.0292
     21 C         138.4823  139.5240  168.3408 C.2     1  UNL1        0.2320
     22 N         138.7255  139.8931  169.7742 N.2     1  UNL1       -0.0311
     23 C         139.9718  140.6351  170.1566 C.2     1  UNL1        0.3728
     24 N         140.4797  141.1300  171.4783 N.2     1  UNL1       -0.0298
     25 C         141.7967  141.8086  171.2442 C.2     1  UNL1        0.2471
     26 C         142.1028  141.7332  169.7777 C.2     1  UNL1        0.1081
     27 CL        143.3226  142.2860  169.1020 Cl      1  UNL1       -0.0783
     28 C         140.9750  141.0079  169.1055 C.2     1  UNL1        0.0849
     29 C         140.7318  140.6387  167.6721 C.3     1  UNL1        0.0654
@<TRIPOS>BOND
     1     1     2    1
     2     2     3    2
     3     3     4    1
     4     4     5    1
     5     5     6    1
     6     4     7    1
     7     7     8   ar
     8     8     9   ar
     9     9    20    1
    10    20    21    2
    11    21    22    1
    12    22    23    2
    13    23    24    1
    14    24    25    2
    15    25    26    1
    16    26    27    1
    17    26    28    2
    18    28    29    1
    19     9    10   ar
    20    10    11   ar
    21    11    12   ar
    22    12    13    1
    23    13    14    1
    24    14    15    1
    25    15    16    1
    26    16    17    1
    27     6     2    1
    28    12     7   ar
    29    17    15    1
    30    15     4    1
    31    29    20    1
    32    28    23    1
    33     1    18    1
    34     1    19    1
@<TRIPOS>MOLECULE
*****
 29 34 0 0 0
SMALL
GASTEIGER

@<TRIPOS>ATOM
      1 N         143.6256  141.9046  165.4547 N.pl3   1  UNL1       -0.3133
      2 C         142.7703  141.7566  166.6781 C.2     1  UNL1        0.2770
      3 N         141.5077  140.9533  166.7792 N.2     1  UNL1       -0.2204
      4 C         140.9845  141.0862  168.1788 C.3     1  UNL1        0.1537
      5 C         141.9239  141.9718  168.9426 C.3     1  UNL1        0.2350
      6 O         143.0275  142.3861  168.0151 O.2     1  UNL1       -0.4478
      7 C         140.1397  140.2210  167.2912 C.ar    1  UNL1        0.0355
      8 C         140.5389  139.9960  165.8630 C.ar    1  UNL1        0.0005
      9 C         139.6941  139.1307  164.9754 C.ar    1  UNL1       -0.0000
     10 C         138.4500  138.4905  165.5162 C.ar    1  UNL1        0.0029
     11 C         138.0508  138.7156  166.9445 C.ar    1  UNL1        0.0366
     12 C         138.8956  139.5808  167.8320 C.ar    1  UNL1        0.1364
     13 O         138.4964  139.8058  169.2603 O.3     1  UNL1       -0.4756
     14 C         139.3412  140.6710  170.1478 C.3     1  UNL1        0.2074
     15 C         140.5853  141.3112  169.6070 C.3     1  UNL1        0.0666
     16 C         141.7913  142.1804  169.8072 C.3     1  UNL1        0.0061
     17 C         140.8426  141.9407  170.9440 C.3     1  UNL1        0.0061
     18 H         143.3723  141.4498  164.6191 H       1  UNL1        0.1466
     19 H         144.4402  142.4565  165.4874 H       1  UNL1        0.1466
     20 C         140.0933  138.9057  163.5472 C.2     1  UNL1        0.0292
     21 C         139.1414  138.2397  162.5983 C.2     1  UNL1        0.2320
     22 N         139.5407  138.0147  161.1701 N.2     1  UNL1       -0.0311
     23 C         140.8919  138.4558  160.6906 C.2     1  UNL1        0.3728
     24 N         141.5589  138.3686  159.3499 N.2     1  UNL1       -0.0298
     25 C         142.9230  138.9807  159.4702 C.2     1  UNL1        0.2471
     26 C         143.0991  139.4462  160.8851 C.2     1  UNL1        0.1081
     27 CL        144.3167  140.1181  161.4472 Cl      1  UNL1       -0.0783
     28 C         141.8438  139.1218  161.6395 C.2     1  UNL1        0.0849
     29 C         141.4445  139.3468  163.0678 C.3     1  UNL1        0.0654
@<TRIPOS>BOND
     1     1     2    1
     2     2     3    2
     3     3     4    1
     4     4     5    1
     5     5     6    1
     6     4     7    1
     7     7     8   ar
     8     8     9   ar
     9     9    20    1
    10    20    21    2
    11    21    22    1
    12    22    23    2
    13    23    24    1
    14    24    25    2
    15    25    26    1
    16    26    27    1
    17    26    28    2
    18    28    29    1
    19     9    10   ar
    20    10    11   ar
    21    11    12   ar
    22    12    13    1
    23    13    14    1
    24    14    15    1
    25    15    16    1
    26    16    17    1
    27     6     2    1
    28    12     7   ar
    29    17    15    1
    30    15     4    1
    31    29    20    1
    32    28    23    1
    33     1    18    1
    34     1    19    1
@<TRIPOS>MOLECULE
*****
 29 34 0 0 0
SMALL
GASTEIGER

@<TRIPOS>ATOM
      1 N         143.1087  142.2299  164.2211 N.pl3   1  UNL1       -0.3133
      2 C         142.7365  142.0002  165.6560 C.2     1  UNL1        0.2770
      3 N         141.5473  141.2282  166.1456 N.2     1  UNL1       -0.2204
      4 C         141.5641  141.2530  167.6453 C.3     1  UNL1        0.1537
      5 C         142.7637  142.0403  168.0825 C.3     1  UNL1        0.2350
      6 O         143.4883  142.5020  166.8530 O.2     1  UNL1       -0.4478
      7 C         140.4099  140.4941  167.0605 C.ar    1  UNL1        0.0355
      8 C         140.2619  140.3838  165.5719 C.ar    1  UNL1        0.0005
      9 C         139.1077  139.6249  164.9871 C.ar    1  UNL1       -0.0000
     10 C         138.1015  138.9763  165.8910 C.ar    1  UNL1        0.0029
     11 C         138.2495  139.0866  167.3796 C.ar    1  UNL1        0.0366
     12 C         139.4037  139.8455  167.9643 C.ar    1  UNL1        0.1364
     13 O         139.5517  139.9559  169.4530 O.3     1  UNL1       -0.4756
     14 C         140.7058  140.7148  170.0377 C.3     1  UNL1        0.2074
     15 C         141.7120  141.3633  169.1339 C.3     1  UNL1        0.0666
     16 C         142.9593  142.1759  168.9497 C.3     1  UNL1        0.0061
     17 C         142.4638  141.8652  170.3310 C.3     1  UNL1        0.0061
     18 H         142.5489  141.8579  163.5017 H       1  UNL1        0.1466
     19 H         143.9127  142.7528  163.9987 H       1  UNL1        0.1466
     20 C         138.9598  139.5146  163.4986 C.2     1  UNL1        0.0292
     21 C         138.7563  138.1714  162.8626 C.2     1  UNL1        0.2320
     22 N         138.6083  138.0611  161.3740 N.2     1  UNL1       -0.0311
     23 C         138.6638  139.2940  160.5213 C.2     1  UNL1        0.3728
     24 N         138.5502  139.4954  159.0392 N.2     1  UNL1       -0.0298
     25 C         138.6835  140.9629  158.7593 C.2     1  UNL1        0.2471
     26 C         138.8794  141.6686  160.0683 C.2     1  UNL1        0.1081
     27 CL        139.0565  143.1463  160.2555 Cl      1  UNL1       -0.0783
     28 C         138.8673  140.6372  161.1573 C.2     1  UNL1        0.0849
     29 C         139.0153  140.7474  162.6460 C.3     1  UNL1        0.0654
@<TRIPOS>BOND
     1     1     2    1
     2     2     3    2
     3     3     4    1
     4     4     5    1
     5     5     6    1
     6     4     7    1
     7     7     8   ar
     8     8     9   ar
     9     9    20    1
    10    20    21    2
    11    21    22    1
    12    22    23    2
    13    23    24    1
    14    24    25    2
    15    25    26    1
    16    26    27    1
    17    26    28    2
    18    28    29    1
    19     9    10   ar
    20    10    11   ar
    21    11    12   ar
    22    12    13    1
    23    13    14    1
    24    14    15    1
    25    15    16    1
    26    16    17    1
    27     6     2    1
    28    12     7   ar
    29    17    15    1
    30    15     4    1
    31    29    20    1
    32    28    23    1
    33     1    18    1
    34     1    19    1
@<TRIPOS>MOLECULE
*****
 29 34 0 0 0
SMALL
GASTEIGER

@<TRIPOS>ATOM
      1 N         143.1723  143.5667  164.8170 N.pl3   1  UNL1       -0.3133
      2 C         142.8850  142.8315  166.0926 C.2     1  UNL1        0.2770
      3 N         141.7097  141.9353  166.3481 N.2     1  UNL1       -0.2204
      4 C         141.8210  141.4134  167.7501 C.3     1  UNL1        0.1537
      5 C         143.0651  141.9872  168.3609 C.3     1  UNL1        0.2350
      6 O         143.7226  142.8636  167.3365 O.2     1  UNL1       -0.4478
      7 C         140.6137  140.9197  167.0092 C.ar    1  UNL1        0.0355
      8 C         140.3702  141.3579  165.5955 C.ar    1  UNL1        0.0005
      9 C         139.1629  140.8641  164.8547 C.ar    1  UNL1       -0.0000
     10 C         138.1993  139.9321  165.5276 C.ar    1  UNL1        0.0029
     11 C         138.4429  139.4939  166.9414 C.ar    1  UNL1        0.0366
     12 C         139.6501  139.9877  167.6822 C.ar    1  UNL1        0.1364
     13 O         139.8937  139.5495  169.0959 O.3     1  UNL1       -0.4756
     14 C         141.1009  140.0433  169.8367 C.3     1  UNL1        0.2074
     15 C         142.0646  140.9752  169.1638 C.3     1  UNL1        0.0666
     16 C         143.3179  141.7984  169.2030 C.3     1  UNL1        0.0061
     17 C         142.9022  141.0073  170.4077 C.3     1  UNL1        0.0061
     18 H         142.5594  143.4818  164.0512 H       1  UNL1        0.1466
     19 H         143.9737  144.1341  164.7456 H       1  UNL1        0.1466
     20 C         138.9193  141.3023  163.4410 C.2     1  UNL1        0.0292
     21 C         137.7437  140.7637  162.6808 C.2     1  UNL1        0.2320
     22 N         137.5001  141.2019  161.2671 N.2     1  UNL1       -0.0311
     23 C         138.4322  142.1788  160.6135 C.2     1  UNL1        0.3728
     24 N         138.4470  142.7894  159.2435 N.2     1  UNL1       -0.0298
     25 C         139.6316  143.7052  159.1570 C.2     1  UNL1        0.2471
     26 C         140.3491  143.6608  160.4734 C.2     1  UNL1        0.1081
     27 CL        141.5900  144.4255  160.8276 Cl      1  UNL1       -0.0783
     28 C         139.6078  142.7174  161.3737 C.2     1  UNL1        0.0849
     29 C         139.8513  142.2791  162.7875 C.3     1  UNL1        0.0654
@<TRIPOS>BOND
     1     1     2    1
     2     2     3    2
     3     3     4    1
     4     4     5    1
     5     5     6    1
     6     4     7    1
     7     7     8   ar
     8     8     9   ar
     9     9    20    1
    10    20    21    2
    11    21    22    1
    12    22    23    2
    13    23    24    1
    14    24    25    2
    15    25    26    1
    16    26    27    1
    17    26    28    2
    18    28    29    1
    19     9    10   ar
    20    10    11   ar
    21    11    12   ar
    22    12    13    1
    23    13    14    1
    24    14    15    1
    25    15    16    1
    26    16    17    1
    27     6     2    1
    28    12     7   ar
    29    17    15    1
    30    15     4    1
    31    29    20    1
    32    28    23    1
    33     1    18    1
    34     1    19    1
@<TRIPOS>MOLECULE
*****
 29 34 0 0 0
SMALL
GASTEIGER

@<TRIPOS>ATOM
      1 N         138.9100  144.7014  165.3076 N.pl3   1  UNL1       -0.3133
      2 C         139.6064  144.6214  163.9814 C.2     1  UNL1        0.2770
      3 N         140.7716  143.7372  163.6495 N.2     1  UNL1       -0.2204
      4 C         141.1451  143.9809  162.2172 C.3     1  UNL1        0.1537
      5 C         140.2106  145.0157  161.6642 C.3     1  UNL1        0.2350
      6 O         139.2597  145.4115  162.7545 O.2     1  UNL1       -0.4478
      7 C         142.0017  142.9601  162.9059 C.ar    1  UNL1        0.0355
      8 C         141.7457  142.6123  164.3424 C.ar    1  UNL1        0.0005
      9 C         142.6023  141.5915  165.0311 C.ar    1  UNL1       -0.0000
     10 C         143.7149  140.9185  164.2833 C.ar    1  UNL1        0.0029
     11 C         143.9709  141.2663  162.8468 C.ar    1  UNL1        0.0366
     12 C         143.1143  142.2871  162.1581 C.ar    1  UNL1        0.1364
     13 O         143.3703  142.6349  160.7216 O.3     1  UNL1       -0.4756
     14 C         142.5137  143.6557  160.0330 C.3     1  UNL1        0.2074
     15 C         141.4011  144.3287  160.7808 C.3     1  UNL1        0.0666
     16 C         140.2643  145.3066  160.8149 C.3     1  UNL1        0.0061
     17 C         141.0544  145.1188  159.5538 C.3     1  UNL1        0.0061
     18 H         139.2127  144.1395  166.0572 H       1  UNL1        0.1466
     19 H         138.1504  145.3159  165.4285 H       1  UNL1        0.1466
     20 C         142.3462  141.2437  166.4676 C.2     1  UNL1        0.0292
     21 C         142.6988  139.8800  166.9834 C.2     1  UNL1        0.2320
     22 N         142.4427  139.5322  168.4199 N.2     1  UNL1       -0.0311
     23 C         141.8341  140.5481  169.3406 C.2     1  UNL1        0.3728
     24 N         141.4683  140.4936  170.7942 N.2     1  UNL1       -0.0298
     25 C         140.8897  141.8235  171.1768 C.2     1  UNL1        0.2471
     26 C         140.8979  142.7001  169.9596 C.2     1  UNL1        0.1081
     27 CL        140.4084  144.1162  169.8895 Cl      1  UNL1       -0.0783
     28 C         141.4816  141.9118  168.8247 C.2     1  UNL1        0.0849
     29 C         141.7377  142.2596  167.3882 C.3     1  UNL1        0.0654
@<TRIPOS>BOND
     1     1     2    1
     2     2     3    2
     3     3     4    1
     4     4     5    1
     5     5     6    1
     6     4     7    1
     7     7     8   ar
     8     8     9   ar
     9     9    20    1
    10    20    21    2
    11    21    22    1
    12    22    23    2
    13    23    24    1
    14    24    25    2
    15    25    26    1
    16    26    27    1
    17    26    28    2
    18    28    29    1
    19     9    10   ar
    20    10    11   ar
    21    11    12   ar
    22    12    13    1
    23    13    14    1
    24    14    15    1
    25    15    16    1
    26    16    17    1
    27     6     2    1
    28    12     7   ar
    29    17    15    1
    30    15     4    1
    31    29    20    1
    32    28    23    1
    33     1    18    1
    34     1    19    1
@<TRIPOS>MOLECULE
*****
 29 34 0 0 0
SMALL
GASTEIGER

@<TRIPOS>ATOM
      1 N         144.9919  139.2857  163.2475 N.pl3   1  UNL1       -0.3133
      2 C         143.9374  139.0839  162.1999 C.2     1  UNL1        0.2770
      3 N         142.4580  139.0202  162.4389 N.2     1  UNL1       -0.2204
      4 C         141.7836  138.8073  161.1160 C.3     1  UNL1        0.1537
      5 C         142.8463  138.7394  160.0596 C.3     1  UNL1        0.2350
      6 O         144.1774  138.9104  160.7294 O.2     1  UNL1       -0.4478
      7 C         140.8369  138.8959  162.2763 C.ar    1  UNL1        0.0355
      8 C         141.3680  139.1078  163.6630 C.ar    1  UNL1        0.0005
      9 C         140.4214  139.1964  164.8232 C.ar    1  UNL1       -0.0000
     10 C         138.9437  139.0730  164.5967 C.ar    1  UNL1        0.0029
     11 C         138.4127  138.8611  163.2099 C.ar    1  UNL1        0.0366
     12 C         139.3593  138.7725  162.0497 C.ar    1  UNL1        0.1364
     13 O         138.8283  138.5605  160.6629 O.3     1  UNL1       -0.4756
     14 C         139.7749  138.4720  159.5027 C.3     1  UNL1        0.2074
     15 C         141.2525  138.5953  159.7293 C.3     1  UNL1        0.0666
     16 C         142.6522  138.6154  159.1903 C.3     1  UNL1        0.0061
     17 C         141.4925  138.4218  158.2588 C.3     1  UNL1        0.0061
     18 H         144.7339  139.3905  164.1918 H       1  UNL1        0.1466
     19 H         145.9419  139.3134  162.9908 H       1  UNL1        0.1466
     20 C         140.9524  139.4084  166.2100 C.2     1  UNL1        0.0292
     21 C         142.4194  139.2553  166.4828 C.2     1  UNL1        0.2320
     22 N         142.9504  139.4673  167.8696 N.2     1  UNL1       -0.0311
     23 C         142.0145  139.8323  168.9835 C.2     1  UNL1        0.3728
     24 N         142.2454  140.1018  170.4409 N.2     1  UNL1       -0.0298
     25 C         140.9212  140.4214  171.0687 C.2     1  UNL1        0.2471
     26 C         139.8718  140.3494  169.9994 C.2     1  UNL1        0.1081
     27 CL        138.4043  140.5979  170.1860 Cl      1  UNL1       -0.0783
     28 C         140.5474  139.9853  168.7106 C.2     1  UNL1        0.0849
     29 C         140.0164  139.7733  167.3238 C.3     1  UNL1        0.0654
@<TRIPOS>BOND
     1     1     2    1
     2     2     3    2
     3     3     4    1
     4     4     5    1
     5     5     6    1
     6     4     7    1
     7     7     8   ar
     8     8     9   ar
     9     9    20    1
    10    20    21    2
    11    21    22    1
    12    22    23    2
    13    23    24    1
    14    24    25    2
    15    25    26    1
    16    26    27    1
    17    26    28    2
    18    28    29    1
    19     9    10   ar
    20    10    11   ar
    21    11    12   ar
    22    12    13    1
    23    13    14    1
    24    14    15    1
    25    15    16    1
    26    16    17    1
    27     6     2    1
    28    12     7   ar
    29    17    15    1
    30    15     4    1
    31    29    20    1
    32    28    23    1
    33     1    18    1
    34     1    19    1
@<TRIPOS>MOLECULE
*****
 29 34 0 0 0
SMALL
GASTEIGER

@<TRIPOS>ATOM
      1 N         144.0138  140.8672  162.0254 N.pl3   1  UNL1       -0.3133
      2 C         143.1673  142.0055  161.5376 C.2     1  UNL1        0.2770
      3 N         142.1403  142.7476  162.3404 N.2     1  UNL1       -0.2204
      4 C         141.5376  143.8022  161.4603 C.3     1  UNL1        0.1537
      5 C         142.1921  143.7118  160.1137 C.3     1  UNL1        0.2350
      6 O         143.1993  142.6014  160.1615 O.2     1  UNL1       -0.4478
      7 C         140.9751  143.7731  162.8506 C.ar    1  UNL1        0.0355
      8 C         141.4822  142.7701  163.8439 C.ar    1  UNL1        0.0005
      9 C         140.9198  142.7410  165.2343 C.ar    1  UNL1       -0.0000
     10 C         139.8503  143.7149  165.6312 C.ar    1  UNL1        0.0029
     11 C         139.3432  144.7180  164.6378 C.ar    1  UNL1        0.0366
     12 C         139.9056  144.7471  163.2476 C.ar    1  UNL1        0.1364
     13 O         139.3986  145.7502  162.2542 O.3     1  UNL1       -0.4756
     14 C         139.9610  145.7793  160.8639 C.3     1  UNL1        0.2074
     15 C         141.0305  144.8053  160.4670 C.3     1  UNL1        0.0666
     16 C         141.9727  144.2598  159.4352 C.3     1  UNL1        0.0061
     17 C         141.0625  145.4012  159.0908 C.3     1  UNL1        0.0061
     18 H         143.9196  140.5450  162.9509 H       1  UNL1        0.1466
     19 H         144.6636  140.4423  161.4200 H       1  UNL1        0.1466
     20 C         141.4268  141.7379  166.2276 C.2     1  UNL1        0.0292
     21 C         141.7532  140.3425  165.7845 C.2     1  UNL1        0.2320
     22 N         142.2603  139.3394  166.7778 N.2     1  UNL1       -0.0311
     23 C         142.4410  139.7318  168.2143 C.2     1  UNL1        0.3728
     24 N         142.9195  138.9652  169.4116 N.2     1  UNL1       -0.0298
     25 C         142.8889  139.8869  170.5945 C.2     1  UNL1        0.2471
     26 C         142.3915  141.2230  170.1285 C.2     1  UNL1        0.1081
     27 CL        142.2038  142.4412  170.9834 Cl      1  UNL1       -0.0783
     28 C         142.1146  141.1272  168.6574 C.2     1  UNL1        0.0849
     29 C         141.6076  142.1302  167.6640 C.3     1  UNL1        0.0654
@<TRIPOS>BOND
     1     1     2    1
     2     2     3    2
     3     3     4    1
     4     4     5    1
     5     5     6    1
     6     4     7    1
     7     7     8   ar
     8     8     9   ar
     9     9    20    1
    10    20    21    2
    11    21    22    1
    12    22    23    2
    13    23    24    1
    14    24    25    2
    15    25    26    1
    16    26    27    1
    17    26    28    2
    18    28    29    1
    19     9    10   ar
    20    10    11   ar
    21    11    12   ar
    22    12    13    1
    23    13    14    1
    24    14    15    1
    25    15    16    1
    26    16    17    1
    27     6     2    1
    28    12     7   ar
    29    17    15    1
    30    15     4    1
    31    29    20    1
    32    28    23    1
    33     1    18    1
    34     1    19    1
@<TRIPOS>MOLECULE
*****
 29 34 0 0 0
SMALL
GASTEIGER

@<TRIPOS>ATOM
      1 N         143.8357  142.4103  165.6996 N.pl3   1  UNL1       -0.3133
      2 C         142.7722  142.0386  166.6901 C.2     1  UNL1        0.2770
      3 N         141.6710  141.0443  166.4698 N.2     1  UNL1       -0.2204
      4 C         140.8416  140.9872  167.7184 C.3     1  UNL1        0.1537
      5 C         141.4303  141.9461  168.7102 C.3     1  UNL1        0.2350
      6 O         142.6235  142.5959  168.0748 O.2     1  UNL1       -0.4478
      7 C         140.3673  140.0723  166.6283 C.ar    1  UNL1        0.0355
      8 C         141.0992  140.0218  165.3201 C.ar    1  UNL1        0.0005
      9 C         140.6249  139.1070  164.2300 C.ar    1  UNL1       -0.0000
     10 C         139.4186  138.2426  164.4484 C.ar    1  UNL1        0.0029
     11 C         138.6866  138.2931  165.7567 C.ar    1  UNL1        0.0366
     12 C         139.1609  139.2079  166.8467 C.ar    1  UNL1        0.1364
     13 O         138.4289  139.2584  168.1550 O.3     1  UNL1       -0.4756
     14 C         138.9033  140.1733  169.2450 C.3     1  UNL1        0.2074
     15 C         140.1096  141.0376  169.0266 C.3     1  UNL1        0.0666
     16 C         141.0799  142.0649  169.5299 C.3     1  UNL1        0.0061
     17 C         139.9608  141.5950  170.4113 C.3     1  UNL1        0.0061
     18 H         143.8500  141.9873  164.8107 H       1  UNL1        0.1466
     19 H         144.5192  143.0774  165.9383 H       1  UNL1        0.1466
     20 C         141.3569  139.0565  162.9218 C.2     1  UNL1        0.0292
     21 C         141.5539  137.7441  162.2227 C.2     1  UNL1        0.2320
     22 N         142.2859  137.6936  160.9144 N.2     1  UNL1       -0.0311
     23 C         142.8209  138.9556  160.3052 C.2     1  UNL1        0.3728
     24 N         143.5775  139.2153  159.0363 N.2     1  UNL1       -0.0298
     25 C         143.8481  140.6882  158.9512 C.2     1  UNL1        0.2471
     26 C         143.2588  141.3388  160.1674 C.2     1  UNL1        0.1081
     27 CL        143.2975  142.8032  160.4902 Cl      1  UNL1       -0.0783
     28 C         142.6239  140.2680  161.0043 C.2     1  UNL1        0.0849
     29 C         141.8919  140.3185  162.3126 C.3     1  UNL1        0.0654
@<TRIPOS>BOND
     1     1     2    1
     2     2     3    2
     3     3     4    1
     4     4     5    1
     5     5     6    1
     6     4     7    1
     7     7     8   ar
     8     8     9   ar
     9     9    20    1
    10    20    21    2
    11    21    22    1
    12    22    23    2
    13    23    24    1
    14    24    25    2
    15    25    26    1
    16    26    27    1
    17    26    28    2
    18    28    29    1
    19     9    10   ar
    20    10    11   ar
    21    11    12   ar
    22    12    13    1
    23    13    14    1
    24    14    15    1
    25    15    16    1
    26    16    17    1
    27     6     2    1
    28    12     7   ar
    29    17    15    1
    30    15     4    1
    31    29    20    1
    32    28    23    1
    33     1    18    1
    34     1    19    1
@<TRIPOS>MOLECULE
*****
 29 34 0 0 0
SMALL
GASTEIGER

@<TRIPOS>ATOM
      1 N         137.7537  138.5279  166.6557 N.pl3   1  UNL1       -0.3133
      2 C         138.6596  139.3474  167.5263 C.2     1  UNL1        0.2770
      3 N         139.9007  140.0625  167.0809 N.2     1  UNL1       -0.2204
      4 C         140.4915  140.7526  168.2746 C.3     1  UNL1        0.1537
      5 C         139.6155  140.4640  169.4575 C.3     1  UNL1        0.2350
      6 O         138.4834  139.5956  168.9951 O.2     1  UNL1       -0.4478
      7 C         141.2680  140.9540  167.0070 C.ar    1  UNL1        0.0355
      8 C         140.7967  140.3228  165.7305 C.ar    1  UNL1        0.0005
      9 C         141.5732  140.5241  164.4630 C.ar    1  UNL1       -0.0000
     10 C         142.8209  141.3566  164.4720 C.ar    1  UNL1        0.0029
     11 C         143.2921  141.9879  165.7486 C.ar    1  UNL1        0.0366
     12 C         142.5157  141.7865  167.0161 C.ar    1  UNL1        0.1364
     13 O         142.9869  142.4177  168.2926 O.3     1  UNL1       -0.4756
     14 C         142.2105  142.2164  169.5601 C.3     1  UNL1        0.2074
     15 C         140.9627  141.3838  169.5511 C.3     1  UNL1        0.0666
     16 C         139.7941  140.7869  170.2777 C.3     1  UNL1        0.0061
     17 C         140.7865  141.6320  171.0199 C.3     1  UNL1        0.0061
     18 H         137.9543  138.4231  165.6975 H       1  UNL1        0.1466
     19 H         136.9586  138.0950  167.0424 H       1  UNL1        0.1466
     20 C         141.1020  139.8929  163.1865 C.2     1  UNL1        0.0292
     21 C         141.1602  138.4033  163.0203 C.2     1  UNL1        0.2320
     22 N         140.6890  137.7721  161.7438 N.2     1  UNL1       -0.0311
     23 C         140.1594  138.6305  160.6334 C.2     1  UNL1        0.3728
     24 N         139.6279  138.2950  159.2715 N.2     1  UNL1       -0.0298
     25 C         139.2412  139.5772  158.5961 C.2     1  UNL1        0.2471
     26 C         139.5337  140.7052  159.5404 C.2     1  UNL1        0.1081
     27 CL        139.2998  142.1624  159.2727 Cl      1  UNL1       -0.0783
     28 C         140.1012  140.1201  160.7997 C.2     1  UNL1        0.0849
     29 C         140.5725  140.7513  162.0763 C.3     1  UNL1        0.0654
@<TRIPOS>BOND
     1     1     2    1
     2     2     3    2
     3     3     4    1
     4     4     5    1
     5     5     6    1
     6     4     7    1
     7     7     8   ar
     8     8     9   ar
     9     9    20    1
    10    20    21    2
    11    21    22    1
    12    22    23    2
    13    23    24    1
    14    24    25    2
    15    25    26    1
    16    26    27    1
    17    26    28    2
    18    28    29    1
    19     9    10   ar
    20    10    11   ar
    21    11    12   ar
    22    12    13    1
    23    13    14    1
    24    14    15    1
    25    15    16    1
    26    16    17    1
    27     6     2    1
    28    12     7   ar
    29    17    15    1
    30    15     4    1
    31    29    20    1
    32    28    23    1
    33     1    18    1
    34     1    19    1
