@<TRIPOS>MOLECULE
*****
 19 22 0 0 0
SMALL
GASTEIGER

@<TRIPOS>ATOM
      1 C         137.8260  138.7777  161.4027 C.3     1  UNL1        0.0521
      2 C         138.4657  138.8810  162.7555 C.ar    1  UNL1        0.0612
      3 C         138.8714  137.6377  163.4902 C.ar    1  UNL1        0.0180
      4 C         139.5111  137.7410  164.8430 C.ar    1  UNL1        0.0420
      5 C         139.7450  139.0875  165.4612 C.ar    1  UNL1        0.1841
      6 O         140.3500  139.4994  166.7705 O.2     1  UNL1       -0.4221
      7 C         140.3182  140.9972  166.8451 C.ar    1  UNL1        0.2938
      8 N         139.6935  141.5110  165.5819 N.ar    1  UNL1       -0.1754
      9 C         139.3393  140.3307  164.7266 C.ar    1  UNL1        0.2012
     10 N         138.6996  140.2274  163.3738 N.ar    1  UNL1       -0.2283
     11 N         141.0580  142.2248  168.5142 N.pl3   1  UNL1       -0.2637
     12 C         140.4607  142.7750  168.8846 C.3     1  UNL1        0.1123
     13 C         140.5145  143.3016  169.4934 C.3     1  UNL1        0.0939
     14 N         141.3605  143.7218  170.3057 N.3     1  UNL1       -0.2711
     15 C         141.5617  143.1492  169.7494 C.3     1  UNL1        0.0738
     16 C         141.9702  142.2061  168.8642 C.3     1  UNL1        0.0372
     17 C         142.2639  141.6359  168.3481 C.3     1  UNL1        0.0798
     18 C         143.2291  142.1873  169.3551 C.3     1  UNL1        0.0372
     19 C         142.7774  143.2302  170.3340 C.3     1  UNL1        0.0738
@<TRIPOS>BOND
     1     1     2    1
     2     2     3   ar
     3     3     4   ar
     4     4     5   ar
     5     5     6   ar
     6     6     7   ar
     7     7    11    1
     8    11    12    1
     9    12    13    1
    10    13    14    1
    11    14    15    1
    12    15    16    1
    13    16    17    1
    14    17    18    1
    15    18    19    1
    16     7     8   ar
    17     8     9   ar
    18     9    10   ar
    19    10     2   ar
    20     9     5   ar
    21    17    11    1
    22    19    14    1
@<TRIPOS>MOLECULE
*****
 19 22 0 0 0
SMALL
GASTEIGER

@<TRIPOS>ATOM
      1 C         137.3571  139.9066  160.4171 C.3     1  UNL1        0.0521
      2 C         137.8952  139.4481  161.7401 C.ar    1  UNL1        0.0612
      3 C         138.3464  138.0283  161.9148 C.ar    1  UNL1        0.0180
      4 C         138.8844  137.5697  163.2378 C.ar    1  UNL1        0.0420
      5 C         138.9713  138.5310  164.3860 C.ar    1  UNL1        0.1841
      6 O         139.4538  138.3683  165.7969 O.2     1  UNL1       -0.4221
      7 C         139.3009  139.6876  166.4942 C.ar    1  UNL1        0.2938
      8 N         138.7238  140.6656  165.5142 N.ar    1  UNL1       -0.1754
      9 C         138.5201  139.9508  164.2112 C.ar    1  UNL1        0.2012
     10 N         137.9820  140.4093  162.8883 N.ar    1  UNL1       -0.2283
     11 N         139.8300  140.1132  168.5867 N.pl3   1  UNL1       -0.2637
     12 C         139.1429  140.2459  169.1406 C.3     1  UNL1        0.1123
     13 C         139.1076  140.4120  169.9293 C.3     1  UNL1        0.0939
     14 N         139.8787  140.5948  170.8906 N.3     1  UNL1       -0.2711
     15 C         140.1755  140.4304  170.1404 C.3     1  UNL1        0.0738
     16 C         140.7411  140.1645  168.9366 C.3     1  UNL1        0.0372
     17 C         141.1296  140.0066  168.2281 C.3     1  UNL1        0.0798
     18 C         141.9972  140.2374  169.4297 C.3     1  UNL1        0.0372
     19 C         141.3717  140.5315  170.7609 C.3     1  UNL1        0.0738
@<TRIPOS>BOND
     1     1     2    1
     2     2     3   ar
     3     3     4   ar
     4     4     5   ar
     5     5     6   ar
     6     6     7   ar
     7     7    11    1
     8    11    12    1
     9    12    13    1
    10    13    14    1
    11    14    15    1
    12    15    16    1
    13    16    17    1
    14    17    18    1
    15    18    19    1
    16     7     8   ar
    17     8     9   ar
    18     9    10   ar
    19    10     2   ar
    20     9     5   ar
    21    17    11    1
    22    19    14    1
@<TRIPOS>MOLECULE
*****
 19 22 0 0 0
SMALL
GASTEIGER

@<TRIPOS>ATOM
      1 C         137.7245  138.4517  161.7275 C.3     1  UNL1        0.0521
      2 C         138.1086  139.5906  162.6249 C.ar    1  UNL1        0.0612
      3 C         137.8063  141.0020  162.2168 C.ar    1  UNL1        0.0180
      4 C         138.1905  142.1409  163.1142 C.ar    1  UNL1        0.0420
      5 C         138.8770  141.8684  164.4197 C.ar    1  UNL1        0.1841
      6 O         139.3715  142.7803  165.5032 O.2     1  UNL1       -0.4221
      7 C         139.9795  141.9325  166.5809 C.ar    1  UNL1        0.2938
      8 N         139.8608  140.4966  166.1636 N.ar    1  UNL1       -0.1754
      9 C         139.1794  140.4571  164.8278 C.ar    1  UNL1        0.2012
     10 N         138.7952  139.3181  163.9304 N.ar    1  UNL1       -0.2283
     11 N         140.8862  142.6662  168.4463 N.pl3   1  UNL1       -0.2637
     12 C         140.3494  143.1431  168.9764 C.3     1  UNL1        0.1123
     13 C         140.4707  143.4998  169.6897 C.3     1  UNL1        0.0939
     14 N         141.3831  143.6564  170.5235 N.3     1  UNL1       -0.2711
     15 C         141.5149  143.2271  169.8334 C.3     1  UNL1        0.0738
     16 C         141.8103  142.5077  168.7222 C.3     1  UNL1        0.0372
     17 C         142.0364  142.0652  168.0657 C.3     1  UNL1        0.0798
     18 C         143.0864  142.2939  169.1121 C.3     1  UNL1        0.0372
     19 C         142.7597  143.0895  170.3410 C.3     1  UNL1        0.0738
@<TRIPOS>BOND
     1     1     2    1
     2     2     3   ar
     3     3     4   ar
     4     4     5   ar
     5     5     6   ar
     6     6     7   ar
     7     7    11    1
     8    11    12    1
     9    12    13    1
    10    13    14    1
    11    14    15    1
    12    15    16    1
    13    16    17    1
    14    17    18    1
    15    18    19    1
    16     7     8   ar
    17     8     9   ar
    18     9    10   ar
    19    10     2   ar
    20     9     5   ar
    21    17    11    1
    22    19    14    1
@<TRIPOS>MOLECULE
*****
 19 22 0 0 0
SMALL
GASTEIGER

@<TRIPOS>ATOM
      1 C         139.6038  138.3586  160.3769 C.3     1  UNL1        0.0521
      2 C         140.0465  138.4855  161.8045 C.ar    1  UNL1        0.0612
      3 C         141.2078  137.6782  162.3041 C.ar    1  UNL1        0.0180
      4 C         141.6506  137.8050  163.7317 C.ar    1  UNL1        0.0420
      5 C         140.9320  138.7391  164.6596 C.ar    1  UNL1        0.1841
      6 O         141.1393  139.0722  166.1073 O.2     1  UNL1       -0.4221
      7 C         140.1062  140.0854  166.5025 C.ar    1  UNL1        0.2938
      8 N         139.2603  140.3784  165.2989 N.ar    1  UNL1       -0.1754
      9 C         139.7707  139.5464  164.1599 C.ar    1  UNL1        0.2012
     10 N         139.3280  139.4196  162.7324 N.ar    1  UNL1       -0.2283
     11 N         139.8726  140.9838  168.4971 N.pl3   1  UNL1       -0.2637
     12 C         139.4790  140.4683  169.1103 C.3     1  UNL1        0.1123
     13 C         139.2969  140.5931  169.8862 C.3     1  UNL1        0.0939
     14 N         139.4013  141.4866  170.7481 N.3     1  UNL1       -0.2711
     15 C         139.6801  141.6076  169.9830 C.3     1  UNL1        0.0738
     16 C         140.1633  141.8830  168.7459 C.3     1  UNL1        0.0372
     17 C         140.4700  142.0957  168.0120 C.3     1  UNL1        0.0798
     18 C         140.5619  143.1249  169.0993 C.3     1  UNL1        0.0372
     19 C         140.0275  142.8204  170.4673 C.3     1  UNL1        0.0738
@<TRIPOS>BOND
     1     1     2    1
     2     2     3   ar
     3     3     4   ar
     4     4     5   ar
     5     5     6   ar
     6     6     7   ar
     7     7    11    1
     8    11    12    1
     9    12    13    1
    10    13    14    1
    11    14    15    1
    12    15    16    1
    13    16    17    1
    14    17    18    1
    15    18    19    1
    16     7     8   ar
    17     8     9   ar
    18     9    10   ar
    19    10     2   ar
    20     9     5   ar
    21    17    11    1
    22    19    14    1
@<TRIPOS>MOLECULE
*****
 19 22 0 0 0
SMALL
GASTEIGER

@<TRIPOS>ATOM
      1 C         142.3881  137.7995  161.1782 C.3     1  UNL1        0.0521
      2 C         141.9830  138.1495  162.5794 C.ar    1  UNL1        0.0612
      3 C         141.0607  137.2449  163.3416 C.ar    1  UNL1        0.0180
      4 C         140.6556  137.5948  164.7428 C.ar    1  UNL1        0.0420
      5 C         141.1728  138.8493  165.3819 C.ar    1  UNL1        0.1841
      6 O         140.9494  139.4508  166.7377 O.2     1  UNL1       -0.4221
      7 C         141.7338  140.7272  166.8136 C.ar    1  UNL1        0.2938
      8 N         142.4419  140.9146  165.5046 N.ar    1  UNL1       -0.1754
      9 C         142.0952  139.7539  164.6198 C.ar    1  UNL1        0.2012
     10 N         142.5003  139.4040  163.2186 N.ar    1  UNL1       -0.2283
     11 N         141.8288  142.0859  168.5413 N.pl3   1  UNL1       -0.2637
     12 C         141.0818  142.5417  168.7170 C.3     1  UNL1        0.1123
     13 C         140.8985  143.0810  169.2883 C.3     1  UNL1        0.0939
     14 N         141.4350  143.6438  170.2617 N.3     1  UNL1       -0.2711
     15 C         141.8550  143.1002  169.8080 C.3     1  UNL1        0.0738
     16 C         142.6124  142.2175  169.1102 C.3     1  UNL1        0.0372
     17 C         143.1101  141.6914  168.7184 C.3     1  UNL1        0.0798
     18 C         143.6908  142.4061  169.9024 C.3     1  UNL1        0.0372
     19 C         142.8533  143.3823  170.6741 C.3     1  UNL1        0.0738
@<TRIPOS>BOND
     1     1     2    1
     2     2     3   ar
     3     3     4   ar
     4     4     5   ar
     5     5     6   ar
     6     6     7   ar
     7     7    11    1
     8    11    12    1
     9    12    13    1
    10    13    14    1
    11    14    15    1
    12    15    16    1
    13    16    17    1
    14    17    18    1
    15    18    19    1
    16     7     8   ar
    17     8     9   ar
    18     9    10   ar
    19    10     2   ar
    20     9     5   ar
    21    17    11    1
    22    19    14    1
@<TRIPOS>MOLECULE
*****
 19 22 0 0 0
SMALL
GASTEIGER

@<TRIPOS>ATOM
      1 C         139.6097  146.2723  161.7980 C.3     1  UNL1        0.0521
      2 C         139.4715  145.1572  162.7917 C.ar    1  UNL1        0.0612
      3 C         138.1297  144.5334  163.0372 C.ar    1  UNL1        0.0180
      4 C         137.9915  143.4184  164.0309 C.ar    1  UNL1        0.0420
      5 C         139.1951  142.9271  164.7792 C.ar    1  UNL1        0.1841
      6 O         139.3655  141.8523  165.8115 O.2     1  UNL1       -0.4221
      7 C         140.8127  141.8118  166.2041 C.ar    1  UNL1        0.2938
      8 N         141.5367  142.8616  165.4143 N.ar    1  UNL1       -0.1754
      9 C         140.5370  143.5509  164.5337 C.ar    1  UNL1        0.2012
     10 N         140.6752  144.6660  163.5399 N.ar    1  UNL1       -0.2283
     11 N         141.7149  140.4516  167.6792 N.pl3   1  UNL1       -0.2637
     12 C         142.3796  139.9384  167.3769 C.3     1  UNL1        0.1123
     13 C         142.8404  139.3822  167.7363 C.3     1  UNL1        0.0939
     14 N         142.9831  138.8551  168.8561 N.3     1  UNL1       -0.2711
     15 C         142.4092  139.4329  168.7347 C.3     1  UNL1        0.0738
     16 C         141.4423  140.3765  168.6146 C.3     1  UNL1        0.0372
     17 C         140.8446  140.9422  168.5906 C.3     1  UNL1        0.0798
     18 C         141.0724  140.2655  169.9097 C.3     1  UNL1        0.0372
     19 C         142.1417  139.2220  170.0424 C.3     1  UNL1        0.0738
@<TRIPOS>BOND
     1     1     2    1
     2     2     3   ar
     3     3     4   ar
     4     4     5   ar
     5     5     6   ar
     6     6     7   ar
     7     7    11    1
     8    11    12    1
     9    12    13    1
    10    13    14    1
    11    14    15    1
    12    15    16    1
    13    16    17    1
    14    17    18    1
    15    18    19    1
    16     7     8   ar
    17     8     9   ar
    18     9    10   ar
    19    10     2   ar
    20     9     5   ar
    21    17    11    1
    22    19    14    1
@<TRIPOS>MOLECULE
*****
 19 22 0 0 0
SMALL
GASTEIGER

@<TRIPOS>ATOM
      1 C         143.9203  138.4625  161.3850 C.3     1  UNL1        0.0521
      2 C         143.7763  139.2571  162.6491 C.ar    1  UNL1        0.0612
      3 C         144.8441  140.2321  163.0478 C.ar    1  UNL1        0.0180
      4 C         144.7001  141.0267  164.3119 C.ar    1  UNL1        0.0420
      5 C         143.4883  140.8463  165.1773 C.ar    1  UNL1        0.1841
      6 O         143.0738  141.4848  166.4698 O.2     1  UNL1       -0.4221
      7 C         141.7498  140.9044  166.8699 C.ar    1  UNL1        0.2938
      8 N         141.3460  139.9072  165.8247 N.ar    1  UNL1       -0.1754
      9 C         142.4205  139.8713  164.7786 C.ar    1  UNL1        0.2012
     10 N         142.5645  139.0767  163.5145 N.ar    1  UNL1       -0.2283
     11 N         140.6017  141.4244  168.6731 N.pl3   1  UNL1       -0.2637
     12 C         140.1546  140.7528  169.0545 C.3     1  UNL1        0.1123
     13 C         139.6812  140.7191  169.7070 C.3     1  UNL1        0.0939
     14 N         139.2452  141.4746  170.5965 N.3     1  UNL1       -0.2711
     15 C         139.7410  141.7642  170.0064 C.3     1  UNL1        0.0738
     16 C         140.5521  142.3161  169.0699 C.3     1  UNL1        0.0372
     17 C         141.0392  142.6955  168.5250 C.3     1  UNL1        0.0798
     18 C         140.4775  143.5456  169.6258 C.3     1  UNL1        0.0372
     19 C         139.5806  142.9352  170.6615 C.3     1  UNL1        0.0738
@<TRIPOS>BOND
     1     1     2    1
     2     2     3   ar
     3     3     4   ar
     4     4     5   ar
     5     5     6   ar
     6     6     7   ar
     7     7    11    1
     8    11    12    1
     9    12    13    1
    10    13    14    1
    11    14    15    1
    12    15    16    1
    13    16    17    1
    14    17    18    1
    15    18    19    1
    16     7     8   ar
    17     8     9   ar
    18     9    10   ar
    19    10     2   ar
    20     9     5   ar
    21    17    11    1
    22    19    14    1
@<TRIPOS>MOLECULE
*****
 19 22 0 0 0
SMALL
GASTEIGER

@<TRIPOS>ATOM
      1 C         142.5966  138.7242  169.9855 C.3     1  UNL1        0.0521
      2 C         141.9345  139.9309  169.3894 C.ar    1  UNL1        0.0612
      3 C         141.3686  140.9943  170.2832 C.ar    1  UNL1        0.0180
      4 C         140.7065  142.2010  169.6870 C.ar    1  UNL1        0.0420
      5 C         140.6102  142.3443  168.1970 C.ar    1  UNL1        0.1841
      6 O         140.0189  143.4142  167.3277 O.2     1  UNL1       -0.4221
      7 C         140.2193  143.0120  165.8966 C.ar    1  UNL1        0.2938
      8 N         140.9344  141.6936  165.8814 N.ar    1  UNL1       -0.1754
      9 C         141.1760  141.2810  167.3032 C.ar    1  UNL1        0.2012
     10 N         141.8382  140.0742  167.8994 N.ar    1  UNL1       -0.2283
     11 N         139.5770  144.1552  164.1300 N.pl3   1  UNL1       -0.2637
     12 C         138.7150  144.0788  163.9118 C.3     1  UNL1        0.1123
     13 C         138.2766  144.4022  163.3167 C.3     1  UNL1        0.0939
     14 N         138.4232  145.1692  162.3460 N.3     1  UNL1       -0.2711
     15 C         139.0605  144.9823  162.8327 C.3     1  UNL1        0.0738
     16 C         140.1577  144.7232  163.5867 C.3     1  UNL1        0.0372
     17 C         140.8501  144.5962  164.0138 C.3     1  UNL1        0.0798
     18 C         140.9529  145.5109  162.8295 C.3     1  UNL1        0.0372
     19 C         139.7395  145.7974  161.9956 C.3     1  UNL1        0.0738
@<TRIPOS>BOND
     1     1     2    1
     2     2     3   ar
     3     3     4   ar
     4     4     5   ar
     5     5     6   ar
     6     6     7   ar
     7     7    11    1
     8    11    12    1
     9    12    13    1
    10    13    14    1
    11    14    15    1
    12    15    16    1
    13    16    17    1
    14    17    18    1
    15    18    19    1
    16     7     8   ar
    17     8     9   ar
    18     9    10   ar
    19    10     2   ar
    20     9     5   ar
    21    17    11    1
    22    19    14    1
@<TRIPOS>MOLECULE
*****
 19 22 0 0 0
SMALL
GASTEIGER

@<TRIPOS>ATOM
      1 C         142.8628  142.8739  170.4277 C.3     1  UNL1        0.0521
      2 C         141.8393  142.0831  169.6681 C.ar    1  UNL1        0.0612
      3 C         140.6625  141.4931  170.3871 C.ar    1  UNL1        0.0180
      4 C         139.6389  140.7023  169.6276 C.ar    1  UNL1        0.0420
      5 C         139.7921  140.5015  168.1490 C.ar    1  UNL1        0.1841
      6 O         138.9506  139.7747  167.1422 O.2     1  UNL1       -0.4221
      7 C         139.6073  139.9156  165.8010 C.ar    1  UNL1        0.2938
      8 N         140.8547  140.7294  165.9788 N.ar    1  UNL1       -0.1754
      9 C         140.9689  141.0915  167.4300 C.ar    1  UNL1        0.2012
     10 N         141.9925  141.8823  168.1896 N.ar    1  UNL1       -0.2283
     11 N         138.8702  139.0759  163.9058 N.pl3   1  UNL1       -0.2637
     12 C         139.0676  138.2178  163.7597 C.3     1  UNL1        0.1123
     13 C         138.9011  137.7210  163.1463 C.3     1  UNL1        0.0939
     14 N         138.3121  137.7411  162.0487 N.3     1  UNL1       -0.2711
     15 C         138.3455  138.4160  162.5190 C.3     1  UNL1        0.0738
     16 C         138.3568  139.5677  163.2353 C.3     1  UNL1        0.0372
     17 C         138.3370  140.2884  163.6330 C.3     1  UNL1        0.0798
     18 C         137.6464  140.2395  162.3024 C.3     1  UNL1        0.0372
     19 C         137.6339  138.9659  161.5103 C.3     1  UNL1        0.0738
@<TRIPOS>BOND
     1     1     2    1
     2     2     3   ar
     3     3     4   ar
     4     4     5   ar
     5     5     6   ar
     6     6     7   ar
     7     7    11    1
     8    11    12    1
     9    12    13    1
    10    13    14    1
    11    14    15    1
    12    15    16    1
    13    16    17    1
    14    17    18    1
    15    18    19    1
    16     7     8   ar
    17     8     9   ar
    18     9    10   ar
    19    10     2   ar
    20     9     5   ar
    21    17    11    1
    22    19    14    1
