@<TRIPOS>MOLECULE
*****
 29 32 0 0 0
SMALL
GASTEIGER

@<TRIPOS>ATOM
      1 C         139.4563  139.4184  163.4980 C.ar    1  UNL1        0.0001
      2 C         140.5544  140.0861  162.7245 C.ar    1  UNL1        0.0014
      3 C         140.6247  139.9291  161.2343 C.ar    1  UNL1        0.0199
      4 C         139.5969  139.1044  160.5177 C.ar    1  UNL1        0.1222
      5 C         138.4988  138.4367  161.2913 C.ar    1  UNL1        0.0199
      6 C         138.4285  138.5937  162.7814 C.ar    1  UNL1        0.0014
      7 C         139.2452  139.8892  167.9683 C.ar    1  UNL1       -0.0208
      8 C         138.2239  139.0554  167.2529 C.ar    1  UNL1       -0.0042
      9 C         138.2943  138.8985  165.7628 C.ar    1  UNL1       -0.0003
     10 C         139.3859  139.5753  164.9881 C.ar    1  UNL1       -0.0000
     11 C         140.4072  140.4091  165.7035 C.ar    1  UNL1       -0.0003
     12 C         140.3368  140.5660  167.1936 C.ar    1  UNL1       -0.0042
     13 C         139.1748  140.0462  169.4584 C.3     1  UNL1        0.0437
     14 C         140.4257  139.9594  170.2816 C.3     1  UNL1        0.0768
     15 C         139.9226  143.1710  170.5670 C.3     1  UNL1        0.0173
     16 C         141.2404  142.5051  170.3028 C.3     1  UNL1        0.0576
     17 C         142.5584  143.1986  170.1233 C.3     1  UNL1        0.0174
     18 C         143.6042  142.1508  169.8813 C.3     1  UNL1        0.0187
     19 C         142.9326  140.8099  169.9111 C.3     1  UNL1        0.0721
     20 N         141.4717  141.0289  170.1716 N.3     1  UNL1       -0.2737
     21 S         139.6672  138.9474  159.0277 S.O2    1  UNL1        0.0634
     22 O         138.3200  139.5935  158.8960 O.2     1  UNL1       -0.1528
     23 O         141.0145  138.3013  159.1593 O.2     1  UNL1       -0.1528
     24 N         139.7375  138.7904  157.5376 N.3     1  UNL1       -0.1504
     25 C         140.4155  137.5928  156.9407 C.3     1  UNL1        0.1279
     26 C         140.4858  137.4358  155.4507 C.3     1  UNL1        0.1613
     27 O         139.8782  138.4764  154.5574 O.3     1  UNL1       -0.3507
     28 C         139.2002  139.6740  155.1541 C.3     1  UNL1        0.1613
     29 C         139.1299  139.8310  156.6443 C.3     1  UNL1        0.1279
@<TRIPOS>BOND
     1    16    15    1
     2    16    17    1
     3    17    18    1
     4    18    19    1
     5    19    20    1
     6    20    14    1
     7    14    13    1
     8    13     7    1
     9     7     8   ar
    10     8     9   ar
    11     9    10   ar
    12    10     1    1
    13     1     2   ar
    14     2     3   ar
    15     3     4   ar
    16     4    21    1
    17    21    22    2
    18    21    23    2
    19    21    24    1
    20    24    25    1
    21    25    26    1
    22    26    27    1
    23    27    28    1
    24    28    29    1
    25     4     5   ar
    26     5     6   ar
    27    10    11   ar
    28    11    12   ar
    29    20    16    1
    30    12     7   ar
    31     6     1   ar
    32    29    24    1
@<TRIPOS>MOLECULE
*****
 29 32 0 0 0
SMALL
GASTEIGER

@<TRIPOS>ATOM
      1 C         141.7285  143.9140  162.1905 C.ar    1  UNL1        0.0001
      2 C         142.5316  143.3371  161.0626 C.ar    1  UNL1        0.0014
      3 C         142.3194  143.8302  159.6619 C.ar    1  UNL1        0.0199
      4 C         141.3040  144.9001  159.3891 C.ar    1  UNL1        0.1222
      5 C         140.5009  145.4770  160.5171 C.ar    1  UNL1        0.0199
      6 C         140.7132  144.9839  161.9178 C.ar    1  UNL1        0.0014
      7 C         142.3650  142.4348  166.3925 C.ar    1  UNL1       -0.0208
      8 C         141.0089  142.9098  165.9619 C.ar    1  UNL1       -0.0042
      9 C         140.7968  143.4028  164.5613 C.ar    1  UNL1       -0.0003
     10 C         141.9407  143.4209  163.5912 C.ar    1  UNL1       -0.0000
     11 C         143.2968  142.9460  164.0218 C.ar    1  UNL1       -0.0003
     12 C         143.5089  142.4529  165.4224 C.ar    1  UNL1       -0.0042
     13 C         142.5772  141.9418  167.7932 C.3     1  UNL1        0.0437
     14 C         142.0519  140.5978  168.2029 C.3     1  UNL1        0.0768
     15 C         142.2795  138.9524  165.3940 C.3     1  UNL1        0.0173
     16 C         141.0174  139.2202  166.1591 C.3     1  UNL1        0.0576
     17 C         139.6384  138.7787  165.7675 C.3     1  UNL1        0.0174
     18 C         138.6814  139.2621  166.8166 C.3     1  UNL1        0.0187
     19 C         139.4691  140.0025  167.8567 C.3     1  UNL1        0.0721
     20 N         140.9128  139.9765  167.4502 N.3     1  UNL1       -0.2737
     21 S         141.0918  145.3932  157.9885 S.O2    1  UNL1        0.0634
     22 O         142.4145  146.0990  158.0366 O.2     1  UNL1       -0.1528
     23 O         139.7691  144.6873  157.9405 O.2     1  UNL1       -0.1528
     24 N         140.8796  145.8862  156.5879 N.3     1  UNL1       -0.1504
     25 C         139.7869  146.8720  156.2973 C.3     1  UNL1        0.1279
     26 C         139.5747  147.3651  154.8966 C.3     1  UNL1        0.1613
     27 O         140.4551  146.8724  153.7866 O.3     1  UNL1       -0.3507
     28 C         141.5476  145.8867  154.0772 C.3     1  UNL1        0.1613
     29 C         141.7599  145.3935  155.4778 C.3     1  UNL1        0.1279
@<TRIPOS>BOND
     1    16    15    1
     2    16    17    1
     3    17    18    1
     4    18    19    1
     5    19    20    1
     6    20    14    1
     7    14    13    1
     8    13     7    1
     9     7     8   ar
    10     8     9   ar
    11     9    10   ar
    12    10     1    1
    13     1     2   ar
    14     2     3   ar
    15     3     4   ar
    16     4    21    1
    17    21    22    2
    18    21    23    2
    19    21    24    1
    20    24    25    1
    21    25    26    1
    22    26    27    1
    23    27    28    1
    24    28    29    1
    25     4     5   ar
    26     5     6   ar
    27    10    11   ar
    28    11    12   ar
    29    20    16    1
    30    12     7   ar
    31     6     1   ar
    32    29    24    1
@<TRIPOS>MOLECULE
*****
 29 32 0 0 0
SMALL
GASTEIGER

@<TRIPOS>ATOM
      1 C         140.9553  139.0940  163.2978 C.ar    1  UNL1        0.0001
      2 C         140.0359  139.2621  162.1246 C.ar    1  UNL1        0.0014
      3 C         140.5518  139.0535  160.7315 C.ar    1  UNL1        0.0199
      4 C         141.9870  138.6768  160.5118 C.ar    1  UNL1        0.1222
      5 C         142.9063  138.5087  161.6851 C.ar    1  UNL1        0.0199
      6 C         142.3905  138.7173  163.0780 C.ar    1  UNL1        0.0014
      7 C         139.4079  139.7199  167.4768 C.ar    1  UNL1       -0.0208
      8 C         140.8508  139.9844  167.1638 C.ar    1  UNL1       -0.0042
      9 C         141.3666  139.7758  165.7709 C.ar    1  UNL1       -0.0003
     10 C         140.4394  139.3026  164.6908 C.ar    1  UNL1       -0.0000
     11 C         138.9965  139.0381  165.0037 C.ar    1  UNL1       -0.0003
     12 C         138.4808  139.2467  166.3967 C.ar    1  UNL1       -0.0042
     13 C         138.8921  139.9285  168.8698 C.3     1  UNL1        0.0437
     14 C         139.8516  140.1784  169.9953 C.3     1  UNL1        0.0768
     15 C         143.0862  140.5270  170.2513 C.3     1  UNL1        0.0173
     16 C         142.0817  141.6393  170.1899 C.3     1  UNL1        0.0576
     17 C         142.3876  143.1070  170.2355 C.3     1  UNL1        0.0174
     18 C         141.0899  143.8540  170.1460 C.3     1  UNL1        0.0187
     19 C         139.9819  142.8478  170.0451 C.3     1  UNL1        0.0721
     20 N         140.5950  141.4791  170.0723 N.3     1  UNL1       -0.2737
     21 S         142.5028  138.4682  159.1189 S.O2    1  UNL1        0.0634
     22 O         141.1112  138.1636  158.6491 O.2     1  UNL1       -0.1528
     23 O         143.8944  138.7727  159.5886 O.2     1  UNL1       -0.1528
     24 N         143.0187  138.2596  157.7259 N.3     1  UNL1       -0.1504
     25 C         142.9569  136.8981  157.0993 C.3     1  UNL1        0.1279
     26 C         143.4727  136.6895  155.7063 C.3     1  UNL1        0.1613
     27 O         144.0504  137.8423  154.9400 O.3     1  UNL1       -0.3507
     28 C         144.1122  139.2037  155.5665 C.3     1  UNL1        0.1613
     29 C         143.5963  139.4124  156.9595 C.3     1  UNL1        0.1279
@<TRIPOS>BOND
     1    16    15    1
     2    16    17    1
     3    17    18    1
     4    18    19    1
     5    19    20    1
     6    20    14    1
     7    14    13    1
     8    13     7    1
     9     7     8   ar
    10     8     9   ar
    11     9    10   ar
    12    10     1    1
    13     1     2   ar
    14     2     3   ar
    15     3     4   ar
    16     4    21    1
    17    21    22    2
    18    21    23    2
    19    21    24    1
    20    24    25    1
    21    25    26    1
    22    26    27    1
    23    27    28    1
    24    28    29    1
    25     4     5   ar
    26     5     6   ar
    27    10    11   ar
    28    11    12   ar
    29    20    16    1
    30    12     7   ar
    31     6     1   ar
    32    29    24    1
@<TRIPOS>MOLECULE
*****
 29 32 0 0 0
SMALL
GASTEIGER

@<TRIPOS>ATOM
      1 C         141.9915  143.9755  162.1725 C.ar    1  UNL1        0.0001
      2 C         140.9014  144.9826  161.9552 C.ar    1  UNL1        0.0014
      3 C         140.5958  145.4700  160.5699 C.ar    1  UNL1        0.0199
      4 C         141.3803  144.9501  159.4019 C.ar    1  UNL1        0.1222
      5 C         142.4705  143.9429  159.6192 C.ar    1  UNL1        0.0199
      6 C         142.7761  143.4556  161.0045 C.ar    1  UNL1        0.0014
      7 C         142.9085  142.5135  166.3285 C.ar    1  UNL1       -0.0208
      8 C         143.9740  143.1927  165.5203 C.ar    1  UNL1       -0.0042
      9 C         143.6684  143.6800  164.1350 C.ar    1  UNL1       -0.0003
     10 C         142.2972  143.4881  163.5579 C.ar    1  UNL1       -0.0000
     11 C         141.2316  142.8090  164.3661 C.ar    1  UNL1       -0.0003
     12 C         141.5373  142.3217  165.7514 C.ar    1  UNL1       -0.0042
     13 C         143.2141  142.0262  167.7138 C.3     1  UNL1        0.0437
     14 C         142.6176  140.7407  168.2053 C.3     1  UNL1        0.0768
     15 C         139.6093  139.7836  167.3785 C.3     1  UNL1        0.0173
     16 C         140.0262  140.3259  168.7133 C.3     1  UNL1        0.0576
     17 C         139.1336  140.5236  169.9025 C.3     1  UNL1        0.0174
     18 C         139.9647  141.0857  171.0176 C.3     1  UNL1        0.0187
     19 C         141.3710  141.2355  170.5175 C.3     1  UNL1        0.0721
     20 N         141.4090  140.7659  169.0934 N.3     1  UNL1       -0.2737
     21 S         141.0748  145.4374  158.0166 S.O2    1  UNL1        0.0634
     22 O         142.4033  146.1320  157.9678 O.2     1  UNL1       -0.1528
     23 O         139.7462  144.7428  158.0653 O.2     1  UNL1       -0.1528
     24 N         140.7692  145.9247  156.6313 N.3     1  UNL1       -0.1504
     25 C         139.6061  146.8431  156.3987 C.3     1  UNL1        0.1279
     26 C         139.3006  147.3304  155.0134 C.3     1  UNL1        0.1613
     27 O         140.1580  146.8994  153.8606 O.3     1  UNL1       -0.3507
     28 C         141.3210  145.9811  154.0930 C.3     1  UNL1        0.1613
     29 C         141.6266  145.4937  155.4784 C.3     1  UNL1        0.1279
@<TRIPOS>BOND
     1    16    15    1
     2    16    17    1
     3    17    18    1
     4    18    19    1
     5    19    20    1
     6    20    14    1
     7    14    13    1
     8    13     7    1
     9     7     8   ar
    10     8     9   ar
    11     9    10   ar
    12    10     1    1
    13     1     2   ar
    14     2     3   ar
    15     3     4   ar
    16     4    21    1
    17    21    22    2
    18    21    23    2
    19    21    24    1
    20    24    25    1
    21    25    26    1
    22    26    27    1
    23    27    28    1
    24    28    29    1
    25     4     5   ar
    26     5     6   ar
    27    10    11   ar
    28    11    12   ar
    29    20    16    1
    30    12     7   ar
    31     6     1   ar
    32    29    24    1
@<TRIPOS>MOLECULE
*****
 29 32 0 0 0
SMALL
GASTEIGER

@<TRIPOS>ATOM
      1 C         138.6978  140.8160  162.6141 C.ar    1  UNL1        0.0001
      2 C         139.2465  142.0648  161.9902 C.ar    1  UNL1        0.0014
      3 C         139.0647  142.3121  160.5219 C.ar    1  UNL1        0.0199
      4 C         138.3341  141.3104  159.6775 C.ar    1  UNL1        0.1222
      5 C         137.7853  140.0615  160.3015 C.ar    1  UNL1        0.0199
      6 C         137.9672  139.8143  161.7697 C.ar    1  UNL1        0.0014
      7 C         139.2432  140.0742  167.0189 C.ar    1  UNL1       -0.0208
      8 C         138.5469  139.0545  166.1672 C.ar    1  UNL1       -0.0042
      9 C         138.3651  139.3018  164.6990 C.ar    1  UNL1       -0.0003
     10 C         138.8796  140.5687  164.0824 C.ar    1  UNL1       -0.0000
     11 C         139.5759  141.5884  164.9341 C.ar    1  UNL1       -0.0003
     12 C         139.7577  141.3411  166.4023 C.ar    1  UNL1       -0.0042
     13 C         139.4250  139.8269  168.4872 C.3     1  UNL1        0.0437
     14 C         139.6502  140.9800  169.4197 C.3     1  UNL1        0.0768
     15 C         140.5023  144.0803  169.9776 C.3     1  UNL1        0.0173
     16 C         141.4334  142.9053  169.9281 C.3     1  UNL1        0.0576
     17 C         142.9196  142.9491  170.1262 C.3     1  UNL1        0.0174
     18 C         143.4465  141.5510  169.9922 C.3     1  UNL1        0.0187
     19 C         142.2858  140.6432  169.7112 C.3     1  UNL1        0.0721
     20 N         141.0417  141.4803  169.6716 N.3     1  UNL1       -0.2737
     21 S         138.1523  141.5576  158.2093 S.O2    1  UNL1        0.0634
     22 O         137.4153  140.2574  158.0817 O.2     1  UNL1       -0.1528
     23 O         138.8893  142.8578  158.3369 O.2     1  UNL1       -0.1528
     24 N         137.9704  141.8048  156.7411 N.3     1  UNL1       -0.1504
     25 C         136.7327  141.3193  156.0464 C.3     1  UNL1        0.1279
     26 C         136.5509  141.5665  154.5781 C.3     1  UNL1        0.1613
     27 O         137.6067  142.2992  153.8045 O.3     1  UNL1       -0.3507
     28 C         138.8443  142.7847  154.4991 C.3     1  UNL1        0.1613
     29 C         139.0262  142.5375  155.9674 C.3     1  UNL1        0.1279
@<TRIPOS>BOND
     1    16    15    1
     2    16    17    1
     3    17    18    1
     4    18    19    1
     5    19    20    1
     6    20    14    1
     7    14    13    1
     8    13     7    1
     9     7     8   ar
    10     8     9   ar
    11     9    10   ar
    12    10     1    1
    13     1     2   ar
    14     2     3   ar
    15     3     4   ar
    16     4    21    1
    17    21    22    2
    18    21    23    2
    19    21    24    1
    20    24    25    1
    21    25    26    1
    22    26    27    1
    23    27    28    1
    24    28    29    1
    25     4     5   ar
    26     5     6   ar
    27    10    11   ar
    28    11    12   ar
    29    20    16    1
    30    12     7   ar
    31     6     1   ar
    32    29    24    1
@<TRIPOS>MOLECULE
*****
 29 32 0 0 0
SMALL
GASTEIGER

@<TRIPOS>ATOM
      1 C         141.1856  142.1294  162.8962 C.ar    1  UNL1        0.0001
      2 C         140.7128  141.3035  161.7368 C.ar    1  UNL1        0.0014
      3 C         140.3503  141.9672  160.4414 C.ar    1  UNL1        0.0199
      4 C         140.4607  143.4570  160.3054 C.ar    1  UNL1        0.1222
      5 C         140.9335  144.2830  161.4648 C.ar    1  UNL1        0.0199
      6 C         141.2959  143.6192  162.7602 C.ar    1  UNL1        0.0014
      7 C         142.2729  140.1382  166.7823 C.ar    1  UNL1       -0.0208
      8 C         141.1695  139.5772  165.9352 C.ar    1  UNL1       -0.0042
      9 C         140.8071  140.2409  164.6398 C.ar    1  UNL1       -0.0003
     10 C         141.5481  141.4657  164.1916 C.ar    1  UNL1       -0.0000
     11 C         142.6515  142.0267  165.0387 C.ar    1  UNL1       -0.0003
     12 C         143.0139  141.3629  166.3341 C.ar    1  UNL1       -0.0042
     13 C         142.6354  139.4744  168.0778 C.3     1  UNL1        0.0437
     14 C         141.8764  139.8058  169.3284 C.3     1  UNL1        0.0768
     15 C         143.8791  142.3296  169.8467 C.3     1  UNL1        0.0173
     16 C         142.3801  142.3809  169.8383 C.3     1  UNL1        0.0576
     17 C         141.5384  143.6013  170.0666 C.3     1  UNL1        0.0174
     18 C         140.0975  143.1955  169.9694 C.3     1  UNL1        0.0187
     19 C         140.0488  141.7242  169.6811 C.3     1  UNL1        0.0721
     20 N         141.4595  141.2209  169.6000 N.3     1  UNL1       -0.2737
     21 S         140.0982  144.1207  159.0100 S.O2    1  UNL1        0.0634
     22 O         139.9691  145.4357  159.7200 O.2     1  UNL1       -0.1528
     23 O         140.2273  142.8058  158.3001 O.2     1  UNL1       -0.1528
     24 N         139.7357  144.7845  157.7147 N.3     1  UNL1       -0.1504
     25 C         139.9550  146.2581  157.5399 C.3     1  UNL1        0.1279
     26 C         139.5926  146.9219  156.2445 C.3     1  UNL1        0.1613
     27 O         139.0108  146.1121  155.1239 O.3     1  UNL1       -0.3507
     28 C         138.7915  144.6386  155.2986 C.3     1  UNL1        0.1613
     29 C         139.1540  143.9748  156.5940 C.3     1  UNL1        0.1279
@<TRIPOS>BOND
     1    16    15    1
     2    16    17    1
     3    17    18    1
     4    18    19    1
     5    19    20    1
     6    20    14    1
     7    14    13    1
     8    13     7    1
     9     7     8   ar
    10     8     9   ar
    11     9    10   ar
    12    10     1    1
    13     1     2   ar
    14     2     3   ar
    15     3     4   ar
    16     4    21    1
    17    21    22    2
    18    21    23    2
    19    21    24    1
    20    24    25    1
    21    25    26    1
    22    26    27    1
    23    27    28    1
    24    28    29    1
    25     4     5   ar
    26     5     6   ar
    27    10    11   ar
    28    11    12   ar
    29    20    16    1
    30    12     7   ar
    31     6     1   ar
    32    29    24    1
@<TRIPOS>MOLECULE
*****
 29 32 0 0 0
SMALL
GASTEIGER

@<TRIPOS>ATOM
      1 C         139.6022  142.3168  162.6205 C.ar    1  UNL1        0.0001
      2 C         138.8552  141.6765  161.4883 C.ar    1  UNL1        0.0014
      3 C         138.9144  142.2780  160.1154 C.ar    1  UNL1        0.0199
      4 C         139.7207  143.5198  159.8748 C.ar    1  UNL1        0.1222
      5 C         140.4677  144.1601  161.0071 C.ar    1  UNL1        0.0199
      6 C         140.4085  143.5586  162.3799 C.ar    1  UNL1        0.0014
      7 C         139.4247  140.5125  166.7390 C.ar    1  UNL1       -0.0208
      8 C         140.3754  141.6369  166.4532 C.ar    1  UNL1       -0.0042
      9 C         140.4346  142.2383  165.0804 C.ar    1  UNL1       -0.0003
     10 C         139.5430  141.7153  163.9934 C.ar    1  UNL1       -0.0000
     11 C         138.5923  140.5909  164.2792 C.ar    1  UNL1       -0.0003
     12 C         138.5331  139.9895  165.6520 C.ar    1  UNL1       -0.0042
     13 C         139.3655  139.9110  168.1119 C.3     1  UNL1        0.0437
     14 C         139.6225  140.7662  169.3171 C.3     1  UNL1        0.0768
     15 C         140.4135  143.8880  169.8439 C.3     1  UNL1        0.0173
     16 C         141.3651  142.7287  169.8243 C.3     1  UNL1        0.0576
     17 C         142.8472  142.8007  170.0434 C.3     1  UNL1        0.0174
     18 C         143.3997  141.4102  169.9367 C.3     1  UNL1        0.0187
     19 C         142.2589  140.4788  169.6516 C.3     1  UNL1        0.0721
     20 N         141.0015  141.2937  169.5822 N.3     1  UNL1       -0.2737
     21 S         139.7799  144.1213  158.5019 S.O2    1  UNL1        0.0634
     22 O         140.4548  145.3373  159.0639 O.2     1  UNL1       -0.1528
     23 O         139.1050  142.9053  157.9400 O.2     1  UNL1       -0.1528
     24 N         139.8391  144.7228  157.1291 N.3     1  UNL1       -0.1504
     25 C         140.1211  146.1867  156.9632 C.3     1  UNL1        0.1279
     26 C         140.1804  146.7882  155.5904 C.3     1  UNL1        0.1613
     27 O         139.9576  145.9259  154.3835 O.3     1  UNL1       -0.3507
     28 C         139.6756  144.4620  154.5493 C.3     1  UNL1        0.1613
     29 C         139.6164  143.8604  155.9222 C.3     1  UNL1        0.1279
@<TRIPOS>BOND
     1    16    15    1
     2    16    17    1
     3    17    18    1
     4    18    19    1
     5    19    20    1
     6    20    14    1
     7    14    13    1
     8    13     7    1
     9     7     8   ar
    10     8     9   ar
    11     9    10   ar
    12    10     1    1
    13     1     2   ar
    14     2     3   ar
    15     3     4   ar
    16     4    21    1
    17    21    22    2
    18    21    23    2
    19    21    24    1
    20    24    25    1
    21    25    26    1
    22    26    27    1
    23    27    28    1
    24    28    29    1
    25     4     5   ar
    26     5     6   ar
    27    10    11   ar
    28    11    12   ar
    29    20    16    1
    30    12     7   ar
    31     6     1   ar
    32    29    24    1
@<TRIPOS>MOLECULE
*****
 29 32 0 0 0
SMALL
GASTEIGER

@<TRIPOS>ATOM
      1 C         141.8567  139.4059  163.0503 C.ar    1  UNL1        0.0001
      2 C         143.1495  139.6257  163.7784 C.ar    1  UNL1        0.0014
      3 C         143.1375  140.0866  165.2058 C.ar    1  UNL1        0.0199
      4 C         141.8326  140.3277  165.9051 C.ar    1  UNL1        0.1222
      5 C         140.5396  140.1079  165.1769 C.ar    1  UNL1        0.0199
      6 C         140.5517  139.6470  163.7496 C.ar    1  UNL1        0.0014
      7 C         141.8929  138.0231  158.7682 C.ar    1  UNL1       -0.0208
      8 C         142.9601  137.5598  159.7149 C.ar    1  UNL1       -0.0042
      9 C         142.9480  138.0208  161.1423 C.ar    1  UNL1       -0.0003
     10 C         141.8687  138.9450  161.6229 C.ar    1  UNL1       -0.0000
     11 C         140.8015  139.4083  160.6761 C.ar    1  UNL1       -0.0003
     12 C         140.8136  138.9474  159.2488 C.ar    1  UNL1       -0.0042
     13 C         141.9049  137.5622  157.3407 C.3     1  UNL1        0.0437
     14 C         142.9299  136.5676  156.8824 C.3     1  UNL1        0.0768
     15 C         144.0700  133.7048  157.9565 C.3     1  UNL1        0.0173
     16 C         143.0231  133.8962  156.8994 C.3     1  UNL1        0.0576
     17 C         142.3165  132.8055  156.1505 C.3     1  UNL1        0.0174
     18 C         141.3556  133.4473  155.1939 C.3     1  UNL1        0.0187
     19 C         141.4685  134.9348  155.3517 C.3     1  UNL1        0.0721
     20 N         142.4991  135.2121  156.4057 N.3     1  UNL1       -0.2737
     21 S         141.8205  140.7886  167.3324 S.O2    1  UNL1        0.0634
     22 O         142.9888  141.6866  167.0524 O.2     1  UNL1       -0.1528
     23 O         140.6521  139.8906  167.6125 O.2     1  UNL1       -0.1528
     24 N         141.8084  141.2495  168.7598 N.3     1  UNL1       -0.1504
     25 C         142.6302  142.4347  169.1723 C.3     1  UNL1        0.1279
     26 C         142.6181  142.8956  170.5996 C.3     1  UNL1        0.1613
     27 O         141.7842  142.1713  171.6146 O.3     1  UNL1       -0.3507
     28 C         140.9625  140.9862  171.2022 C.3     1  UNL1        0.1613
     29 C         140.9745  140.5253  169.7748 C.3     1  UNL1        0.1279
@<TRIPOS>BOND
     1    16    15    1
     2    16    17    1
     3    17    18    1
     4    18    19    1
     5    19    20    1
     6    20    14    1
     7    14    13    1
     8    13     7    1
     9     7     8   ar
    10     8     9   ar
    11     9    10   ar
    12    10     1    1
    13     1     2   ar
    14     2     3   ar
    15     3     4   ar
    16     4    21    1
    17    21    22    2
    18    21    23    2
    19    21    24    1
    20    24    25    1
    21    25    26    1
    22    26    27    1
    23    27    28    1
    24    28    29    1
    25     4     5   ar
    26     5     6   ar
    27    10    11   ar
    28    11    12   ar
    29    20    16    1
    30    12     7   ar
    31     6     1   ar
    32    29    24    1
@<TRIPOS>MOLECULE
*****
 29 32 0 0 0
SMALL
GASTEIGER

@<TRIPOS>ATOM
      1 C         141.8379  139.3942  163.1091 C.ar    1  UNL1        0.0001
      2 C         142.7791  138.7808  164.1029 C.ar    1  UNL1        0.0014
      3 C         142.7700  139.2442  165.5296 C.ar    1  UNL1        0.0199
      4 C         141.8195  140.3209  165.9623 C.ar    1  UNL1        0.1222
      5 C         140.8783  140.9343  164.9684 C.ar    1  UNL1        0.0199
      6 C         140.8875  140.4710  163.5418 C.ar    1  UNL1        0.0014
      7 C         141.8653  138.0043  158.8292 C.ar    1  UNL1       -0.0208
      8 C         140.7328  138.8466  159.3369 C.ar    1  UNL1       -0.0042
      9 C         140.7236  139.3099  160.7635 C.ar    1  UNL1       -0.0003
     10 C         141.8471  138.9309  161.6824 C.ar    1  UNL1       -0.0000
     11 C         142.9796  138.0886  161.1746 C.ar    1  UNL1       -0.0003
     12 C         142.9887  137.6253  159.7480 C.ar    1  UNL1       -0.0042
     13 C         141.8744  137.5410  157.4025 C.3     1  UNL1        0.0437
     14 C         143.0053  136.6959  156.8957 C.3     1  UNL1        0.0768
     15 C         141.0723  135.2817  154.6792 C.3     1  UNL1        0.0173
     16 C         141.9243  134.5702  155.6881 C.3     1  UNL1        0.0576
     17 C         142.0375  133.0839  155.8553 C.3     1  UNL1        0.0174
     18 C         142.9959  132.8153  156.9775 C.3     1  UNL1        0.0187
     19 C         143.4751  134.1358  157.5039 C.3     1  UNL1        0.0721
     20 N         142.8128  135.2203  156.7069 N.3     1  UNL1       -0.2737
     21 S         141.8103  140.7842  167.3889 S.O2    1  UNL1        0.0634
     22 O         141.2343  142.1004  166.9577 O.2     1  UNL1       -0.1528
     23 O         142.3864  139.4681  167.8201 O.2     1  UNL1       -0.1528
     24 N         141.8012  141.2476  168.8155 N.3     1  UNL1       -0.1504
     25 C         140.9853  140.5127  169.8375 C.3     1  UNL1        0.1279
     26 C         140.9761  140.9761  171.2641 C.3     1  UNL1        0.1613
     27 O         141.7827  142.1743  171.6687 O.3     1  UNL1       -0.3507
     28 C         142.5985  142.9091  170.6468 C.3     1  UNL1        0.1613
     29 C         142.6078  142.4458  169.2201 C.3     1  UNL1        0.1279
@<TRIPOS>BOND
     1    16    15    1
     2    16    17    1
     3    17    18    1
     4    18    19    1
     5    19    20    1
     6    20    14    1
     7    14    13    1
     8    13     7    1
     9     7     8   ar
    10     8     9   ar
    11     9    10   ar
    12    10     1    1
    13     1     2   ar
    14     2     3   ar
    15     3     4   ar
    16     4    21    1
    17    21    22    2
    18    21    23    2
    19    21    24    1
    20    24    25    1
    21    25    26    1
    22    26    27    1
    23    27    28    1
    24    28    29    1
    25     4     5   ar
    26     5     6   ar
    27    10    11   ar
    28    11    12   ar
    29    20    16    1
    30    12     7   ar
    31     6     1   ar
    32    29    24    1
