@<TRIPOS>MOLECULE
*****
 30 32 0 0 0
SMALL
GASTEIGER

@<TRIPOS>ATOM
      1 C         144.4185  139.1326  163.2240 C.3     1  UNL1        0.1056
      2 N         142.0052  140.3036  166.8371 N.pl3   1  UNL1       -0.3023
      3 C         141.8469  141.0607  165.5519 C.3     1  UNL1        0.1082
      4 C         142.6513  140.6703  164.3475 C.3     1  UNL1        0.0939
      5 N         143.6141  139.5229  164.4284 N.3     1  UNL1       -0.2676
      6 C         143.7724  138.7658  165.7136 C.3     1  UNL1        0.0939
      7 C         142.9679  139.1562  166.9180 C.3     1  UNL1        0.1082
      8 C         141.7042  141.7630  168.9654 C.ar    1  UNL1        0.1519
      9 C         140.8997  142.1534  170.1697 C.ar    1  UNL1        0.0382
     10 C         139.5917  141.4747  170.4501 C.ar    1  UNL1        0.0032
     11 C         139.0882  140.4057  169.5262 C.ar    1  UNL1        0.0015
     12 C         139.8927  140.0153  168.3219 C.ar    1  UNL1        0.0176
     13 C         141.2007  140.6940  168.0415 C.ar    1  UNL1        0.0824
     14 C         144.0667  142.5067  169.7497 C.3     1  UNL1        0.2525
     15 O         143.0121  142.4417  168.6850 O.3     1  UNL1       -0.4702
     16 C         143.7718  139.0917  161.8712 C.3     1  UNL1        0.1700
     17 O         143.7750  140.3137  161.0013 O.3     1  UNL1       -0.3793
     18 H         143.3193  140.1182  160.1676 H       1  UNL1        0.2106
     19 C         143.1221  137.8290  161.3883 C.3     1  UNL1        0.2358
     20 O         141.6332  137.7704  161.2152 O.3     1  UNL1       -0.4728
     21 C         140.7334  137.9156  162.4066 C.ar    1  UNL1        0.1387
     22 C         141.0911  137.2497  163.7022 C.ar    1  UNL1        0.0368
     23 C         140.1913  137.3948  164.8935 C.ar    1  UNL1        0.0070
     24 C         138.9338  138.2058  164.7892 C.ar    1  UNL1        0.0716
     25 C         138.5761  138.8717  163.4935 C.ar    1  UNL1        0.0070
     26 C         139.4759  138.7266  162.3022 C.ar    1  UNL1        0.0368
     27 C         138.0339  138.3509  165.9805 C.3     1  UNL1        0.4186
     28 F         137.1341  138.4961  167.1718 F       1  UNL1       -0.1659
     29 F         137.9837  139.8340  165.7618 F       1  UNL1       -0.1659
     30 F         138.0841  136.8678  166.1992 F       1  UNL1       -0.1659
@<TRIPOS>BOND
     1    14    15    1
     2    15     8    1
     3     8     9   ar
     4     9    10   ar
     5    10    11   ar
     6    11    12   ar
     7    12    13   ar
     8    13     2    1
     9     2     3    1
    10     3     4    1
    11     4     5    1
    12     5     1    1
    13     1    16    1
    14    16    17    1
    15    16    19    1
    16    19    20    1
    17    20    21    1
    18    21    22   ar
    19    22    23   ar
    20    23    24   ar
    21    24    27    1
    22    27    28    1
    23    27    29    1
    24    27    30    1
    25    24    25   ar
    26    25    26   ar
    27     5     6    1
    28     6     7    1
    29    13     8   ar
    30     7     2    1
    31    26    21   ar
    32    17    18    1
@<TRIPOS>MOLECULE
*****
 30 32 0 0 0
SMALL
GASTEIGER

@<TRIPOS>ATOM
      1 C         140.9747  145.4207  161.7479 C.3     1  UNL1        0.1056
      2 N         142.3454  141.8805  164.1641 N.pl3   1  UNL1       -0.3023
      3 C         141.7523  141.6745  162.8018 C.3     1  UNL1        0.1082
      4 C         141.2954  142.8545  161.9964 C.3     1  UNL1        0.0939
      5 N         141.4316  144.2407  162.5533 N.3     1  UNL1       -0.2676
      6 C         142.0246  144.4467  163.9156 C.3     1  UNL1        0.0939
      7 C         142.4815  143.2665  164.7210 C.3     1  UNL1        0.1082
      8 C         144.0254  139.9375  164.5548 C.ar    1  UNL1        0.1519
      9 C         144.4822  138.7575  165.3601 C.ar    1  UNL1        0.0382
     10 C         143.7159  138.3402  166.5802 C.ar    1  UNL1        0.0032
     11 C         142.4927  139.1029  166.9949 C.ar    1  UNL1        0.0015
     12 C         142.0359  140.2830  166.1896 C.ar    1  UNL1        0.0176
     13 C         142.8022  140.7003  164.9695 C.ar    1  UNL1        0.0824
     14 C         145.6256  141.6013  163.3627 C.3     1  UNL1        0.2525
     15 O         144.7917  140.3548  163.3347 O.3     1  UNL1       -0.4702
     16 C         139.5585  145.9022  161.8600 C.3     1  UNL1        0.1700
     17 O         139.0676  147.0027  160.9667 O.3     1  UNL1       -0.3793
     18 H         138.1376  147.1915  161.1674 H       1  UNL1        0.2106
     19 C         138.6332  145.2833  162.8653 C.3     1  UNL1        0.2358
     20 O         137.7516  144.1370  162.4671 O.3     1  UNL1       -0.4728
     21 C         137.9691  142.7797  163.0678 C.ar    1  UNL1        0.1387
     22 C         138.4304  142.6539  164.4895 C.ar    1  UNL1        0.0368
     23 C         138.6479  141.2968  165.0901 C.ar    1  UNL1        0.0070
     24 C         138.4040  140.0654  164.2691 C.ar    1  UNL1        0.0716
     25 C         137.9427  140.1912  162.8473 C.ar    1  UNL1        0.0070
     26 C         137.7252  141.5484  162.2467 C.ar    1  UNL1        0.0368
     27 C         138.6215  138.7082  164.8697 C.3     1  UNL1        0.4186
     28 F         138.8390  137.3510  165.4703 F       1  UNL1       -0.1659
     29 F         138.5280  138.0899  163.5063 F       1  UNL1       -0.1659
     30 F         138.7150  139.3265  166.2331 F       1  UNL1       -0.1659
@<TRIPOS>BOND
     1    14    15    1
     2    15     8    1
     3     8     9   ar
     4     9    10   ar
     5    10    11   ar
     6    11    12   ar
     7    12    13   ar
     8    13     2    1
     9     2     3    1
    10     3     4    1
    11     4     5    1
    12     5     1    1
    13     1    16    1
    14    16    17    1
    15    16    19    1
    16    19    20    1
    17    20    21    1
    18    21    22   ar
    19    22    23   ar
    20    23    24   ar
    21    24    27    1
    22    27    28    1
    23    27    29    1
    24    27    30    1
    25    24    25   ar
    26    25    26   ar
    27     5     6    1
    28     6     7    1
    29    13     8   ar
    30     7     2    1
    31    26    21   ar
    32    17    18    1
@<TRIPOS>MOLECULE
*****
 30 32 0 0 0
SMALL
GASTEIGER

@<TRIPOS>ATOM
      1 C         144.3984  140.2564  162.0779 C.3     1  UNL1        0.1056
      2 N         142.8846  141.6917  166.0651 N.pl3   1  UNL1       -0.3023
      3 C         143.4854  142.6663  165.0959 C.3     1  UNL1        0.1082
      4 C         143.9900  142.1878  163.7669 C.3     1  UNL1        0.0939
      5 N         143.8938  140.7348  163.4069 N.3     1  UNL1       -0.2676
      6 C         143.2931  139.7602  164.3761 C.3     1  UNL1        0.0939
      7 C         142.7885  140.2387  165.7052 C.3     1  UNL1        0.1082
      8 C         140.9357  142.5397  167.5593 C.ar    1  UNL1        0.1519
      9 C         140.4311  143.0181  168.8884 C.ar    1  UNL1        0.0382
     10 C         141.3710  143.1271  170.0524 C.ar    1  UNL1        0.0032
     11 C         142.8153  142.7576  169.8873 C.ar    1  UNL1        0.0015
     12 C         143.3198  142.2792  168.5582 C.ar    1  UNL1        0.0176
     13 C         142.3800  142.1702  167.3942 C.ar    1  UNL1        0.0824
     14 C         139.8237  143.5900  165.4592 C.3     1  UNL1        0.2525
     15 O         139.9959  142.4307  166.3953 O.3     1  UNL1       -0.4702
     16 C         143.8442  139.0006  161.4730 C.3     1  UNL1        0.1700
     17 O         144.6170  137.7185  161.5668 O.3     1  UNL1       -0.3793
     18 H         144.1213  137.0093  161.1282 H       1  UNL1        0.2106
     19 C         142.5171  139.0270  160.7743 C.3     1  UNL1        0.2358
     20 O         141.4870  137.9807  161.0812 O.3     1  UNL1       -0.4728
     21 C         140.6390  138.1016  162.3126 C.ar    1  UNL1        0.1387
     22 C         139.5431  139.1241  162.3711 C.ar    1  UNL1        0.0368
     23 C         138.6951  139.2450  163.6024 C.ar    1  UNL1        0.0070
     24 C         138.9429  138.3434  164.7752 C.ar    1  UNL1        0.0716
     25 C         140.0387  137.3208  164.7167 C.ar    1  UNL1        0.0070
     26 C         140.8868  137.1999  163.4854 C.ar    1  UNL1        0.0368
     27 C         138.0948  138.4642  166.0066 C.3     1  UNL1        0.4186
     28 F         137.2468  138.5851  167.2379 F       1  UNL1       -0.1659
     29 F         138.1860  136.9816  166.2148 F       1  UNL1       -0.1659
     30 F         138.0036  139.9469  165.7983 F       1  UNL1       -0.1659
@<TRIPOS>BOND
     1    14    15    1
     2    15     8    1
     3     8     9   ar
     4     9    10   ar
     5    10    11   ar
     6    11    12   ar
     7    12    13   ar
     8    13     2    1
     9     2     3    1
    10     3     4    1
    11     4     5    1
    12     5     1    1
    13     1    16    1
    14    16    17    1
    15    16    19    1
    16    19    20    1
    17    20    21    1
    18    21    22   ar
    19    22    23   ar
    20    23    24   ar
    21    24    27    1
    22    27    28    1
    23    27    29    1
    24    27    30    1
    25    24    25   ar
    26    25    26   ar
    27     5     6    1
    28     6     7    1
    29    13     8   ar
    30     7     2    1
    31    26    21   ar
    32    17    18    1
@<TRIPOS>MOLECULE
*****
 30 32 0 0 0
SMALL
GASTEIGER

@<TRIPOS>ATOM
      1 C         137.4099  141.9059  162.9879 C.3     1  UNL1        0.1056
      2 N         139.8110  140.6067  166.5652 N.pl3   1  UNL1       -0.3023
      3 C         138.9248  139.6236  165.8595 C.3     1  UNL1        0.1082
      4 C         138.1245  140.0566  164.6671 C.3     1  UNL1        0.0939
      5 N         138.2103  141.4729  164.1803 N.3     1  UNL1       -0.2676
      6 C         139.0965  142.4560  164.8860 C.3     1  UNL1        0.0939
      7 C         139.8969  142.0229  166.0785 C.3     1  UNL1        0.1082
      8 C         142.0250  139.7040  167.5817 C.ar    1  UNL1        0.1519
      9 C         142.8253  139.2710  168.7741 C.ar    1  UNL1        0.0382
     10 C         142.2120  139.3075  170.1425 C.ar    1  UNL1        0.0032
     11 C         140.7983  139.7771  170.3184 C.ar    1  UNL1        0.0015
     12 C         139.9980  140.2101  169.1260 C.ar    1  UNL1        0.0176
     13 C         140.6114  140.1736  167.7576 C.ar    1  UNL1        0.0824
     14 C         143.2725  138.4051  165.7091 C.3     1  UNL1        0.2525
     15 O         142.6384  139.6675  166.2133 O.3     1  UNL1       -0.4702
     16 C         137.8728  143.0638  162.1543 C.3     1  UNL1        0.1700
     17 O         137.4672  144.4608  162.5201 O.3     1  UNL1       -0.3793
     18 H         137.8484  145.0854  161.8833 H       1  UNL1        0.2106
     19 C         138.7412  142.8248  160.9548 C.3     1  UNL1        0.2358
     20 O         139.9694  143.6586  160.7400 O.3     1  UNL1       -0.4728
     21 C         141.0195  143.7363  161.8084 C.ar    1  UNL1        0.1387
     22 C         141.2409  145.0210  162.5503 C.ar    1  UNL1        0.0368
     23 C         142.2909  145.0988  163.6187 C.ar    1  UNL1        0.0070
     24 C         143.1195  143.8919  163.9451 C.ar    1  UNL1        0.0716
     25 C         142.8981  142.6071  163.2031 C.ar    1  UNL1        0.0070
     26 C         141.8481  142.5294  162.1348 C.ar    1  UNL1        0.0368
     27 C         144.1695  143.9696  165.0135 C.3     1  UNL1        0.4186
     28 F         145.2195  144.0474  166.0818 F       1  UNL1       -0.1659
     29 F         144.2659  145.4527  164.8108 F       1  UNL1       -0.1659
     30 F         144.0732  142.4865  165.2162 F       1  UNL1       -0.1659
@<TRIPOS>BOND
     1    14    15    1
     2    15     8    1
     3     8     9   ar
     4     9    10   ar
     5    10    11   ar
     6    11    12   ar
     7    12    13   ar
     8    13     2    1
     9     2     3    1
    10     3     4    1
    11     4     5    1
    12     5     1    1
    13     1    16    1
    14    16    17    1
    15    16    19    1
    16    19    20    1
    17    20    21    1
    18    21    22   ar
    19    22    23   ar
    20    23    24   ar
    21    24    27    1
    22    27    28    1
    23    27    29    1
    24    27    30    1
    25    24    25   ar
    26    25    26   ar
    27     5     6    1
    28     6     7    1
    29    13     8   ar
    30     7     2    1
    31    26    21   ar
    32    17    18    1
@<TRIPOS>MOLECULE
*****
 30 32 0 0 0
SMALL
GASTEIGER

@<TRIPOS>ATOM
      1 C         140.0810  137.3906  163.7812 C.3     1  UNL1        0.1056
      2 N         140.4428  140.2736  167.2174 N.pl3   1  UNL1       -0.3023
      3 C         141.6759  139.7732  166.5253 C.3     1  UNL1        0.1082
      4 C         141.5553  138.8122  165.3799 C.3     1  UNL1        0.0939
      5 N         140.2016  138.3516  164.9266 N.3     1  UNL1       -0.2676
      6 C         138.9685  138.8520  165.6188 C.3     1  UNL1        0.0939
      7 C         139.0891  139.8131  166.7642 C.3     1  UNL1        0.1082
      8 C         140.9000  140.7286  169.7342 C.ar    1  UNL1        0.1519
      9 C         141.0207  141.6896  170.8795 C.ar    1  UNL1        0.0382
     10 C         140.8047  143.1567  170.6535 C.ar    1  UNL1        0.0032
     11 C         140.4681  143.6627  169.2822 C.ar    1  UNL1        0.0015
     12 C         140.3475  142.7017  168.1369 C.ar    1  UNL1        0.0176
     13 C         140.5634  141.2346  168.3628 C.ar    1  UNL1        0.0824
     14 C         142.5095  138.7130  170.0457 C.3     1  UNL1        0.2525
     15 O         141.1160  139.2615  169.9601 O.3     1  UNL1       -0.4702
     16 C         139.4355  137.8282  162.4999 C.3     1  UNL1        0.1700
     17 O         138.0824  137.3013  162.1236 O.3     1  UNL1       -0.3793
     18 H         137.8126  137.6812  161.2729 H       1  UNL1        0.2106
     19 C         140.1430  138.7926  161.5948 C.3     1  UNL1        0.2358
     20 O         139.4705  140.0699  161.1871 O.3     1  UNL1       -0.4728
     21 C         139.2565  141.1597  162.1953 C.ar    1  UNL1        0.1387
     22 C         137.9333  141.8621  162.2709 C.ar    1  UNL1        0.0368
     23 C         137.7192  142.9520  163.2791 C.ar    1  UNL1        0.0070
     24 C         138.8283  143.3394  164.2116 C.ar    1  UNL1        0.0716
     25 C         140.1516  142.6370  164.1360 C.ar    1  UNL1        0.0070
     26 C         140.3656  141.5472  163.1278 C.ar    1  UNL1        0.0368
     27 C         138.6143  144.4292  165.2198 C.3     1  UNL1        0.4186
     28 F         138.4003  145.5191  166.2280 F       1  UNL1       -0.1659
     29 F         140.0946  144.5087  165.4482 F       1  UNL1       -0.1659
     30 F         137.1339  144.3498  164.9915 F       1  UNL1       -0.1659
@<TRIPOS>BOND
     1    14    15    1
     2    15     8    1
     3     8     9   ar
     4     9    10   ar
     5    10    11   ar
     6    11    12   ar
     7    12    13   ar
     8    13     2    1
     9     2     3    1
    10     3     4    1
    11     4     5    1
    12     5     1    1
    13     1    16    1
    14    16    17    1
    15    16    19    1
    16    19    20    1
    17    20    21    1
    18    21    22   ar
    19    22    23   ar
    20    23    24   ar
    21    24    27    1
    22    27    28    1
    23    27    29    1
    24    27    30    1
    25    24    25   ar
    26    25    26   ar
    27     5     6    1
    28     6     7    1
    29    13     8   ar
    30     7     2    1
    31    26    21   ar
    32    17    18    1
@<TRIPOS>MOLECULE
*****
 30 32 0 0 0
SMALL
GASTEIGER

@<TRIPOS>ATOM
      1 C         139.0054  137.7376  162.9549 C.3     1  UNL1        0.1056
      2 N         141.1961  139.7077  166.3563 N.pl3   1  UNL1       -0.3023
      3 C         141.9039  138.7138  165.4838 C.3     1  UNL1        0.1082
      4 C         141.1737  138.0571  164.3500 C.3     1  UNL1        0.0939
      5 N         139.7356  138.3943  164.0887 N.3     1  UNL1       -0.2676
      6 C         139.0278  139.3882  164.9612 C.3     1  UNL1        0.0939
      7 C         139.7581  140.0449  166.0950 C.3     1  UNL1        0.1082
      8 C         142.6879  141.6352  167.2558 C.ar    1  UNL1        0.1519
      9 C         143.4182  142.2919  168.3896 C.ar    1  UNL1        0.0382
     10 C         143.3869  141.6776  169.7577 C.ar    1  UNL1        0.0032
     11 C         142.6254  140.4068  169.9920 C.ar    1  UNL1        0.0015
     12 C         141.8951  139.7501  168.8582 C.ar    1  UNL1        0.0176
     13 C         141.9264  140.3644  167.4901 C.ar    1  UNL1        0.0824
     14 C         143.8932  143.0826  165.4663 C.3     1  UNL1        0.2525
     15 O         142.7192  142.2495  165.8877 O.3     1  UNL1       -0.4702
     16 C         138.5724  138.5503  161.7708 C.3     1  UNL1        0.1700
     17 O         137.1122  138.7382  161.4837 O.3     1  UNL1       -0.3793
     18 H         137.0066  139.2847  160.6893 H       1  UNL1        0.2106
     19 C         139.5995  139.1750  160.8739 C.3     1  UNL1        0.2358
     20 O         139.5576  140.6489  160.5983 O.3     1  UNL1       -0.4728
     21 C         139.3211  141.6154  161.7208 C.ar    1  UNL1        0.1387
     22 C         140.4474  141.9900  162.6379 C.ar    1  UNL1        0.0368
     23 C         140.2110  142.9564  163.7603 C.ar    1  UNL1        0.0070
     24 C         138.8481  143.5483  163.9658 C.ar    1  UNL1        0.0716
     25 C         137.7217  143.1738  163.0487 C.ar    1  UNL1        0.0070
     26 C         137.9582  142.2073  161.9262 C.ar    1  UNL1        0.0368
     27 C         138.6116  144.5148  165.0883 C.3     1  UNL1        0.4186
     28 F         138.3750  145.4812  166.2107 F       1  UNL1       -0.1659
     29 F         137.1312  144.3222  164.9421 F       1  UNL1       -0.1659
     30 F         140.0919  144.7074  165.2345 F       1  UNL1       -0.1659
@<TRIPOS>BOND
     1    14    15    1
     2    15     8    1
     3     8     9   ar
     4     9    10   ar
     5    10    11   ar
     6    11    12   ar
     7    12    13   ar
     8    13     2    1
     9     2     3    1
    10     3     4    1
    11     4     5    1
    12     5     1    1
    13     1    16    1
    14    16    17    1
    15    16    19    1
    16    19    20    1
    17    20    21    1
    18    21    22   ar
    19    22    23   ar
    20    23    24   ar
    21    24    27    1
    22    27    28    1
    23    27    29    1
    24    27    30    1
    25    24    25   ar
    26    25    26   ar
    27     5     6    1
    28     6     7    1
    29    13     8   ar
    30     7     2    1
    31    26    21   ar
    32    17    18    1
@<TRIPOS>MOLECULE
*****
 30 32 0 0 0
SMALL
GASTEIGER

@<TRIPOS>ATOM
      1 C         143.0714  140.3817  159.9678 C.3     1  UNL1        0.1056
      2 N         142.9239  140.6109  164.4595 N.pl3   1  UNL1       -0.3023
      3 C         144.0608  139.9054  163.7815 C.3     1  UNL1        0.1082
      4 C         144.1100  139.8290  162.2843 C.3     1  UNL1        0.0939
      5 N         143.0222  140.4581  161.4650 N.3     1  UNL1       -0.2676
      6 C         141.8853  141.1636  162.1430 C.3     1  UNL1        0.0939
      7 C         141.8361  141.2400  163.6403 C.3     1  UNL1        0.1082
      8 C         143.0488  142.0079  166.6465 C.ar    1  UNL1        0.1519
      9 C         142.9996  142.0843  168.1437 C.ar    1  UNL1        0.0382
     10 C         142.7764  140.8401  168.9512 C.ar    1  UNL1        0.0032
     11 C         142.6023  139.5195  168.2615 C.ar    1  UNL1        0.0015
     12 C         142.6515  139.4431  166.7643 C.ar    1  UNL1        0.0176
     13 C         142.8747  140.6873  165.9568 C.ar    1  UNL1        0.0824
     14 C         144.6653  143.6649  165.4670 C.3     1  UNL1        0.2525
     15 O         143.2720  143.2521  165.8390 O.3     1  UNL1       -0.4702
     16 C         142.6557  139.1222  159.2670 C.3     1  UNL1        0.1700
     17 O         143.3965  138.6638  158.0460 O.3     1  UNL1       -0.3793
     18 H         143.0027  137.8398  157.7193 H       1  UNL1        0.2106
     19 C         141.4991  138.3212  159.7873 C.3     1  UNL1        0.2358
     20 O         141.6623  137.4813  161.0193 O.3     1  UNL1       -0.4728
     21 C         140.8025  137.7380  162.2214 C.ar    1  UNL1        0.1387
     22 C         139.5366  138.5306  162.0825 C.ar    1  UNL1        0.0368
     23 C         138.6768  138.7873  163.2845 C.ar    1  UNL1        0.0070
     24 C         139.0829  138.2514  164.6253 C.ar    1  UNL1        0.0716
     25 C         140.3488  137.4588  164.7642 C.ar    1  UNL1        0.0070
     26 C         141.2086  137.2021  163.5622 C.ar    1  UNL1        0.0368
     27 C         138.2230  138.5081  165.8274 C.3     1  UNL1        0.4186
     28 F         137.3632  138.7648  167.0293 F       1  UNL1       -0.1659
     29 F         138.1892  139.9695  165.4910 F       1  UNL1       -0.1659
     30 F         138.2569  137.0467  166.1637 F       1  UNL1       -0.1659
@<TRIPOS>BOND
     1    14    15    1
     2    15     8    1
     3     8     9   ar
     4     9    10   ar
     5    10    11   ar
     6    11    12   ar
     7    12    13   ar
     8    13     2    1
     9     2     3    1
    10     3     4    1
    11     4     5    1
    12     5     1    1
    13     1    16    1
    14    16    17    1
    15    16    19    1
    16    19    20    1
    17    20    21    1
    18    21    22   ar
    19    22    23   ar
    20    23    24   ar
    21    24    27    1
    22    27    28    1
    23    27    29    1
    24    27    30    1
    25    24    25   ar
    26    25    26   ar
    27     5     6    1
    28     6     7    1
    29    13     8   ar
    30     7     2    1
    31    26    21   ar
    32    17    18    1
@<TRIPOS>MOLECULE
*****
 30 32 0 0 0
SMALL
GASTEIGER

@<TRIPOS>ATOM
      1 C         141.8250  144.7419  160.6375 C.3     1  UNL1        0.1056
      2 N         142.5072  141.7334  163.9137 N.pl3   1  UNL1       -0.3023
      3 C         141.6371  141.3831  162.7431 C.3     1  UNL1        0.1082
      4 C         141.4097  142.3859  161.6510 C.3     1  UNL1        0.0939
      5 N         142.0524  143.7391  161.7296 N.3     1  UNL1       -0.2676
      6 C         142.9224  144.0893  162.9002 C.3     1  UNL1        0.0939
      7 C         143.1498  143.0864  163.9923 C.3     1  UNL1        0.1082
      8 C         143.4777  139.4605  164.7149 C.ar    1  UNL1        0.1519
      9 C         143.7051  138.4577  165.8070 C.ar    1  UNL1        0.0382
     10 C         143.1892  138.7248  167.1899 C.ar    1  UNL1        0.0032
     11 C         142.4460  139.9949  167.4808 C.ar    1  UNL1        0.0015
     12 C         142.2187  140.9977  166.3887 C.ar    1  UNL1        0.0176
     13 C         142.7345  140.7305  165.0058 C.ar    1  UNL1        0.0824
     14 C         143.2888  138.2096  162.4457 C.3     1  UNL1        0.2525
     15 O         143.9936  139.1933  163.3320 O.3     1  UNL1       -0.4702
     16 C         140.4725  145.3667  160.4627 C.3     1  UNL1        0.1700
     17 O         139.7442  145.2257  159.1590 O.3     1  UNL1       -0.3793
     18 H         138.8914  145.6848  159.2138 H       1  UNL1        0.2106
     19 C         139.8485  146.1323  161.5915 C.3     1  UNL1        0.2358
     20 O         138.5713  145.6474  162.2109 O.3     1  UNL1       -0.4728
     21 C         138.5576  144.3722  163.0007 C.ar    1  UNL1        0.1387
     22 C         137.8134  143.1773  162.4828 C.ar    1  UNL1        0.0368
     23 C         137.7997  141.9021  163.2725 C.ar    1  UNL1        0.0070
     24 C         138.5302  141.8219  164.5801 C.ar    1  UNL1        0.0716
     25 C         139.2744  143.0168  165.0980 C.ar    1  UNL1        0.0070
     26 C         139.2881  144.2920  164.3083 C.ar    1  UNL1        0.0368
     27 C         138.5165  140.5466  165.3699 C.3     1  UNL1        0.4186
     28 F         138.5028  139.2715  166.1597 F       1  UNL1       -0.1659
     29 F         139.1575  141.2557  166.5258 F       1  UNL1       -0.1659
     30 F         137.8755  139.8376  164.2140 F       1  UNL1       -0.1659
@<TRIPOS>BOND
     1    14    15    1
     2    15     8    1
     3     8     9   ar
     4     9    10   ar
     5    10    11   ar
     6    11    12   ar
     7    12    13   ar
     8    13     2    1
     9     2     3    1
    10     3     4    1
    11     4     5    1
    12     5     1    1
    13     1    16    1
    14    16    17    1
    15    16    19    1
    16    19    20    1
    17    20    21    1
    18    21    22   ar
    19    22    23   ar
    20    23    24   ar
    21    24    27    1
    22    27    28    1
    23    27    29    1
    24    27    30    1
    25    24    25   ar
    26    25    26   ar
    27     5     6    1
    28     6     7    1
    29    13     8   ar
    30     7     2    1
    31    26    21   ar
    32    17    18    1
@<TRIPOS>MOLECULE
*****
 30 32 0 0 0
SMALL
GASTEIGER

@<TRIPOS>ATOM
      1 C         144.9027  140.1261  163.3233 C.3     1  UNL1        0.1056
      2 N         142.2362  140.2893  166.9445 N.pl3   1  UNL1       -0.3023
      3 C         142.8850  141.5416  166.4338 C.3     1  UNL1        0.1082
      4 C         143.7738  141.4872  165.2268 C.3     1  UNL1        0.0939
      5 N         144.0139  140.1805  164.5304 N.3     1  UNL1       -0.2676
      6 C         143.3651  138.9282  165.0411 C.3     1  UNL1        0.0939
      7 C         142.4762  138.9826  166.2482 C.3     1  UNL1        0.1082
      8 C         141.9328  140.6344  169.5016 C.ar    1  UNL1        0.1519
      9 C         141.0440  140.6888  170.7087 C.ar    1  UNL1        0.0382
     10 C         139.5696  140.4525  170.5656 C.ar    1  UNL1        0.0032
     11 C         138.9841  140.1618  169.2156 C.ar    1  UNL1        0.0015
     12 C         139.8730  140.1074  168.0086 C.ar    1  UNL1        0.0176
     13 C         141.3473  140.3437  168.1516 C.ar    1  UNL1        0.0824
     14 C         143.9261  142.2606  169.8656 C.3     1  UNL1        0.2525
     15 O         143.4072  140.8706  169.6447 O.3     1  UNL1       -0.4702
     16 C         144.7716  141.1637  162.2480 C.3     1  UNL1        0.1700
     17 O         145.7728  142.2766  162.1537 O.3     1  UNL1       -0.3793
     18 H         145.5439  142.8552  161.4096 H       1  UNL1        0.2106
     19 C         143.6394  141.0883  161.2671 C.3     1  UNL1        0.2358
     20 O         142.2663  140.7059  161.7344 O.3     1  UNL1       -0.4728
     21 C         141.4926  141.6317  162.6257 C.ar    1  UNL1        0.1387
     22 C         141.7173  143.1125  162.5449 C.ar    1  UNL1        0.0368
     23 C         140.9436  144.0383  163.4361 C.ar    1  UNL1        0.0070
     24 C         139.9452  143.4832  164.4082 C.ar    1  UNL1        0.0716
     25 C         139.7204  142.0023  164.4889 C.ar    1  UNL1        0.0070
     26 C         140.4941  141.0765  163.5977 C.ar    1  UNL1        0.0368
     27 C         139.1714  144.4089  165.2994 C.3     1  UNL1        0.4186
     28 F         138.3977  145.3346  166.1907 F       1  UNL1       -0.1659
     29 F         139.7256  143.7107  166.5058 F       1  UNL1       -0.1659
     30 F         138.6172  145.1072  164.0931 F       1  UNL1       -0.1659
@<TRIPOS>BOND
     1    14    15    1
     2    15     8    1
     3     8     9   ar
     4     9    10   ar
     5    10    11   ar
     6    11    12   ar
     7    12    13   ar
     8    13     2    1
     9     2     3    1
    10     3     4    1
    11     4     5    1
    12     5     1    1
    13     1    16    1
    14    16    17    1
    15    16    19    1
    16    19    20    1
    17    20    21    1
    18    21    22   ar
    19    22    23   ar
    20    23    24   ar
    21    24    27    1
    22    27    28    1
    23    27    29    1
    24    27    30    1
    25    24    25   ar
    26    25    26   ar
    27     5     6    1
    28     6     7    1
    29    13     8   ar
    30     7     2    1
    31    26    21   ar
    32    17    18    1
