@<TRIPOS>MOLECULE
*****
 32 34 0 0 0
SMALL
GASTEIGER

@<TRIPOS>ATOM
      1 C         142.5254  140.4006  167.9856 C.3     1  UNL1        0.0782
      2 C         142.8745  141.8592  168.0122 C.3     1  UNL1        0.0372
      3 C         143.4606  142.5124  166.7957 C.3     1  UNL1        0.0741
      4 N         143.6976  141.7070  165.5527 N.3     1  UNL1       -0.2689
      5 C         143.3485  140.2484  165.5261 C.3     1  UNL1        0.0741
      6 C         142.7624  139.5952  166.7425 C.3     1  UNL1        0.0372
      7 C         142.7907  138.8597  170.0605 C.3     1  UNL1        0.1148
      8 N         141.9392  139.7475  169.2021 N.am    1  UNL1       -0.2790
      9 C         140.5015  139.9820  169.5601 C.2     1  UNL1        0.2301
     10 O         139.9154  139.3289  170.7766 O.2     1  UNL1       -0.2745
     11 C         139.6501  140.8698  168.7017 C.3     1  UNL1        0.1116
     12 C         139.3025  140.4518  167.3036 C.ar    1  UNL1       -0.0130
     13 C         139.5892  141.3703  166.1530 C.ar    1  UNL1       -0.0025
     14 C         139.2416  140.9523  164.7550 C.ar    1  UNL1        0.0180
     15 C         138.6072  139.6157  164.5077 C.ar    1  UNL1        0.1057
     16 C         138.3205  138.6972  165.6583 C.ar    1  UNL1        0.0180
     17 C         138.6681  139.1152  167.0563 C.ar    1  UNL1       -0.0025
     18 S         138.2596  139.1977  163.1096 S.O2    1  UNL1        0.0104
     19 C         137.9120  138.7797  161.7117 C.3     1  UNL1        0.1816
     20 O         138.8557  137.8453  163.3658 O.2     1  UNL1       -0.1686
     21 O         137.6635  140.5501  162.8535 O.2     1  UNL1       -0.1686
     22 C         144.2838  142.3602  164.3362 C.3     1  UNL1        0.0991
     23 C         143.3954  143.1005  163.3809 C.ar    1  UNL1       -0.0062
     24 C         143.2230  142.6013  161.9770 C.ar    1  UNL1       -0.0030
     25 C         142.3346  143.3415  161.0215 C.ar    1  UNL1        0.0036
     26 C         141.6187  144.5810  161.4700 C.ar    1  UNL1        0.0714
     27 C         141.7912  145.0802  162.8740 C.ar    1  UNL1        0.0036
     28 C         142.6796  144.3400  163.8294 C.ar    1  UNL1       -0.0030
     29 C         140.7303  145.3213  160.5147 C.3     1  UNL1        0.4186
     30 F         139.8420  146.0616  159.5593 F       1  UNL1       -0.1659
     31 F         140.2309  146.1761  161.6415 F       1  UNL1       -0.1659
     32 F         141.2298  144.4665  159.3879 F       1  UNL1       -0.1659
@<TRIPOS>BOND
     1     7     8    1
     2     8     9   am
     3     9    10    2
     4     9    11    1
     5    11    12    1
     6    12    13   ar
     7    13    14   ar
     8    14    15   ar
     9    15    18    1
    10    18    19    1
    11    18    20    2
    12    18    21    2
    13    15    16   ar
    14    16    17   ar
    15     8     1    1
    16     1     2    1
    17     2     3    1
    18     3     4    1
    19     4    22    1
    20    22    23    1
    21    23    24   ar
    22    24    25   ar
    23    25    26   ar
    24    26    29    1
    25    29    30    1
    26    29    31    1
    27    29    32    1
    28    26    27   ar
    29    27    28   ar
    30     4     5    1
    31     5     6    1
    32    17    12   ar
    33     6     1    1
    34    28    23   ar
@<TRIPOS>MOLECULE
*****
 32 34 0 0 0
SMALL
GASTEIGER

@<TRIPOS>ATOM
      1 C         141.4850  138.5083  162.2547 C.3     1  UNL1        0.0782
      2 C         142.1766  139.7601  162.7070 C.3     1  UNL1        0.0372
      3 C         142.6169  139.8999  164.1341 C.3     1  UNL1        0.0741
      4 N         142.3657  138.7878  165.1088 N.3     1  UNL1       -0.2689
      5 C         141.6741  137.5359  164.6565 C.3     1  UNL1        0.0741
      6 C         141.2337  137.3962  163.2295 C.3     1  UNL1        0.0372
      7 C         142.0625  138.1627  159.7453 C.3     1  UNL1        0.1148
      8 N         141.0446  138.3686  160.8276 N.am    1  UNL1       -0.2790
      9 C         139.5862  138.4346  160.4829 C.2     1  UNL1        0.2301
     10 O         139.1458  138.2949  159.0558 O.2     1  UNL1       -0.2745
     11 C         138.5682  138.6404  161.5651 C.3     1  UNL1        0.1116
     12 C         138.5678  139.9109  162.3626 C.ar    1  UNL1       -0.0130
     13 C         138.3787  139.8628  163.8499 C.ar    1  UNL1       -0.0025
     14 C         138.3783  141.1333  164.6473 C.ar    1  UNL1        0.0180
     15 C         138.5670  142.4518  163.9575 C.ar    1  UNL1        0.1057
     16 C         138.7561  142.4999  162.4702 C.ar    1  UNL1        0.0180
     17 C         138.7565  141.2295  161.6728 C.ar    1  UNL1       -0.0025
     18 S         138.5665  143.7223  164.7550 S.O2    1  UNL1        0.0104
     19 C         138.5661  144.9927  165.5524 C.3     1  UNL1        0.1816
     20 O         137.6078  144.3353  163.7777 O.2     1  UNL1       -0.1686
     21 O         139.5253  143.1093  165.7322 O.2     1  UNL1       -0.1686
     22 C         142.8060  138.9276  166.5359 C.3     1  UNL1        0.0991
     23 C         142.0862  139.8703  167.4540 C.ar    1  UNL1       -0.0062
     24 C         140.5867  139.8846  167.4890 C.ar    1  UNL1       -0.0030
     25 C         139.8668  140.8274  168.4072 C.ar    1  UNL1        0.0036
     26 C         140.6465  141.7559  169.2903 C.ar    1  UNL1        0.0714
     27 C         142.1460  141.7416  169.2553 C.ar    1  UNL1        0.0036
     28 C         142.8659  140.7989  168.3372 C.ar    1  UNL1       -0.0030
     29 C         139.9266  142.6987  170.2084 C.3     1  UNL1        0.4186
     30 F         139.2068  143.6414  171.1266 F       1  UNL1       -0.1659
     31 F         141.0444  143.6890  170.0678 F       1  UNL1       -0.1659
     32 F         138.8089  141.7083  170.3491 F       1  UNL1       -0.1659
@<TRIPOS>BOND
     1     7     8    1
     2     8     9   am
     3     9    10    2
     4     9    11    1
     5    11    12    1
     6    12    13   ar
     7    13    14   ar
     8    14    15   ar
     9    15    18    1
    10    18    19    1
    11    18    20    2
    12    18    21    2
    13    15    16   ar
    14    16    17   ar
    15     8     1    1
    16     1     2    1
    17     2     3    1
    18     3     4    1
    19     4    22    1
    20    22    23    1
    21    23    24   ar
    22    24    25   ar
    23    25    26   ar
    24    26    29    1
    25    29    30    1
    26    29    31    1
    27    29    32    1
    28    26    27   ar
    29    27    28   ar
    30     4     5    1
    31     5     6    1
    32    17    12   ar
    33     6     1    1
    34    28    23   ar
@<TRIPOS>MOLECULE
*****
 32 34 0 0 0
SMALL
GASTEIGER

@<TRIPOS>ATOM
      1 C         141.8597  144.1613  161.5262 C.3     1  UNL1        0.0782
      2 C         141.6126  142.6822  161.4938 C.3     1  UNL1        0.0372
      3 C         142.4064  141.7696  162.3809 C.3     1  UNL1        0.0741
      4 N         143.4474  142.3361  163.3003 N.3     1  UNL1       -0.2689
      5 C         143.6945  143.8153  163.3328 C.3     1  UNL1        0.0741
      6 C         142.9007  144.7279  162.4457 C.3     1  UNL1        0.0372
      7 C         141.3812  145.1579  159.1751 C.3     1  UNL1        0.1148
      8 N         141.0658  145.0740  160.6391 N.am    1  UNL1       -0.2790
      9 C         139.9565  145.9026  161.2162 C.2     1  UNL1        0.2301
     10 O         139.1627  146.8153  160.3291 O.2     1  UNL1       -0.2745
     11 C         139.6412  145.8186  162.6802 C.3     1  UNL1        0.1116
     12 C         139.3588  144.4875  163.3115 C.ar    1  UNL1       -0.0130
     13 C         138.3507  143.5637  162.6947 C.ar    1  UNL1       -0.0025
     14 C         138.0684  142.2327  163.3260 C.ar    1  UNL1        0.0180
     15 C         138.7941  141.8254  164.5740 C.ar    1  UNL1        0.1057
     16 C         139.8021  142.7492  165.1907 C.ar    1  UNL1        0.0180
     17 C         140.0845  144.0802  164.5594 C.ar    1  UNL1       -0.0025
     18 S         138.5117  140.4943  165.2052 S.O2    1  UNL1        0.0104
     19 C         138.2293  139.1632  165.8365 C.3     1  UNL1        0.1816
     20 O         139.2941  140.9034  166.4178 O.2     1  UNL1       -0.1686
     21 O         137.7293  140.0851  163.9926 O.2     1  UNL1       -0.1686
     22 C         144.2412  141.4235  164.1874 C.3     1  UNL1        0.0991
     23 C         143.6500  140.9262  165.4731 C.ar    1  UNL1       -0.0062
     24 C         143.4805  139.4532  165.7004 C.ar    1  UNL1       -0.0030
     25 C         142.8892  138.9559  166.9861 C.ar    1  UNL1        0.0036
     26 C         142.4675  139.9315  168.0446 C.ar    1  UNL1        0.0714
     27 C         142.6371  141.4045  167.8173 C.ar    1  UNL1        0.0036
     28 C         143.2283  141.9018  166.5316 C.ar    1  UNL1       -0.0030
     29 C         141.8763  139.4342  169.3303 C.3     1  UNL1        0.4186
     30 F         141.2850  138.9369  170.6160 F       1  UNL1       -0.1659
     31 F         140.8414  140.5185  169.2738 F       1  UNL1       -0.1659
     32 F         142.9111  138.3498  169.3867 F       1  UNL1       -0.1659
@<TRIPOS>BOND
     1     7     8    1
     2     8     9   am
     3     9    10    2
     4     9    11    1
     5    11    12    1
     6    12    13   ar
     7    13    14   ar
     8    14    15   ar
     9    15    18    1
    10    18    19    1
    11    18    20    2
    12    18    21    2
    13    15    16   ar
    14    16    17   ar
    15     8     1    1
    16     1     2    1
    17     2     3    1
    18     3     4    1
    19     4    22    1
    20    22    23    1
    21    23    24   ar
    22    24    25   ar
    23    25    26   ar
    24    26    29    1
    25    29    30    1
    26    29    31    1
    27    29    32    1
    28    26    27   ar
    29    27    28   ar
    30     4     5    1
    31     5     6    1
    32    17    12   ar
    33     6     1    1
    34    28    23   ar
@<TRIPOS>MOLECULE
*****
 32 34 0 0 0
SMALL
GASTEIGER

@<TRIPOS>ATOM
      1 C         138.6145  139.1468  162.8359 C.3     1  UNL1        0.0782
      2 C         138.8016  137.8850  163.6251 C.3     1  UNL1        0.0372
      3 C         138.8136  137.9329  165.1243 C.3     1  UNL1        0.0741
      4 N         138.6385  139.2425  165.8342 N.3     1  UNL1       -0.2689
      5 C         138.4514  140.5044  165.0450 C.3     1  UNL1        0.0741
      6 C         138.4394  140.4565  163.5458 C.3     1  UNL1        0.0372
      7 C         137.3504  139.4418  160.5853 C.3     1  UNL1        0.1148
      8 N         138.6025  139.0989  161.3367 N.am    1  UNL1       -0.2790
      9 C         139.8427  138.7081  160.5888 C.2     1  UNL1        0.2301
     10 O         139.8307  138.6602  159.0896 O.2     1  UNL1       -0.2745
     11 C         141.0948  138.3651  161.3402 C.3     1  UNL1        0.1116
     12 C         141.7940  139.4152  162.1517 C.ar    1  UNL1       -0.0130
     13 C         142.3349  139.0773  163.5093 C.ar    1  UNL1       -0.0025
     14 C         143.0340  140.1274  164.3207 C.ar    1  UNL1        0.0180
     15 C         143.1922  141.5154  163.7745 C.ar    1  UNL1        0.1057
     16 C         142.6513  141.8534  162.4169 C.ar    1  UNL1        0.0180
     17 C         141.9522  140.8033  161.6055 C.ar    1  UNL1       -0.0025
     18 S         143.8914  142.5656  164.5861 S.O2    1  UNL1        0.0104
     19 C         144.5905  143.6156  165.3975 C.3     1  UNL1        0.1816
     20 O         142.5644  143.1318  164.9965 O.2     1  UNL1       -0.1686
     21 O         145.2183  141.9994  164.1756 O.2     1  UNL1       -0.1686
     22 C         138.6505  139.2904  167.3334 C.3     1  UNL1        0.0991
     23 C         139.6352  140.1678  168.0479 C.ar    1  UNL1       -0.0062
     24 C         140.9188  140.5564  167.3762 C.ar    1  UNL1       -0.0030
     25 C         141.9035  141.4339  168.0907 C.ar    1  UNL1        0.0036
     26 C         141.6046  141.9226  169.4769 C.ar    1  UNL1        0.0714
     27 C         140.3209  141.5340  170.1487 C.ar    1  UNL1        0.0036
     28 C         139.3363  140.6566  169.4342 C.ar    1  UNL1       -0.0030
     29 C         142.5893  142.8000  170.1914 C.3     1  UNL1        0.4186
     30 F         143.5740  143.6774  170.9059 F       1  UNL1       -0.1659
     31 F         143.5621  141.6598  170.2509 F       1  UNL1       -0.1659
     32 F         141.6165  143.9402  170.1320 F       1  UNL1       -0.1659
@<TRIPOS>BOND
     1     7     8    1
     2     8     9   am
     3     9    10    2
     4     9    11    1
     5    11    12    1
     6    12    13   ar
     7    13    14   ar
     8    14    15   ar
     9    15    18    1
    10    18    19    1
    11    18    20    2
    12    18    21    2
    13    15    16   ar
    14    16    17   ar
    15     8     1    1
    16     1     2    1
    17     2     3    1
    18     3     4    1
    19     4    22    1
    20    22    23    1
    21    23    24   ar
    22    24    25   ar
    23    25    26   ar
    24    26    29    1
    25    29    30    1
    26    29    31    1
    27    29    32    1
    28    26    27   ar
    29    27    28   ar
    30     4     5    1
    31     5     6    1
    32    17    12   ar
    33     6     1    1
    34    28    23   ar
@<TRIPOS>MOLECULE
*****
 32 34 0 0 0
SMALL
GASTEIGER

@<TRIPOS>ATOM
      1 C         143.1644  140.8161  161.6677 C.3     1  UNL1        0.0782
      2 C         141.8865  141.3864  162.2078 C.3     1  UNL1        0.0372
      3 C         141.8651  142.0263  163.5643 C.3     1  UNL1        0.0741
      4 N         143.1216  142.0960  164.3806 N.3     1  UNL1       -0.2689
      5 C         144.3995  141.5256  163.8405 C.3     1  UNL1        0.0741
      6 C         144.4209  140.8857  162.4840 C.3     1  UNL1        0.0372
      7 C         143.1756  141.0309  159.0785 C.3     1  UNL1        0.1148
      8 N         143.1858  140.1762  160.3112 N.am    1  UNL1       -0.2790
      9 C         143.2174  138.6816  160.1874 C.2     1  UNL1        0.2301
     10 O         143.2388  138.0417  158.8309 O.2     1  UNL1       -0.2745
     11 C         143.2276  137.8270  161.4200 C.3     1  UNL1        0.1116
     12 C         142.1634  138.0019  162.4627 C.ar    1  UNL1       -0.0130
     13 C         140.7161  137.9643  162.0709 C.ar    1  UNL1       -0.0025
     14 C         139.6520  138.1391  163.1136 C.ar    1  UNL1        0.0180
     15 C         140.0354  138.3515  164.5481 C.ar    1  UNL1        0.1057
     16 C         141.4828  138.3891  164.9400 C.ar    1  UNL1        0.0180
     17 C         142.5468  138.2143  163.8973 C.ar    1  UNL1       -0.0025
     18 S         138.9713  138.5264  165.5908 S.O2    1  UNL1        0.0104
     19 C         137.9072  138.7013  166.6335 C.3     1  UNL1        0.1816
     20 O         139.4105  139.9451  165.8011 O.2     1  UNL1       -0.1686
     21 O         138.5320  137.1077  165.3805 O.2     1  UNL1       -0.1686
     22 C         143.1001  142.7359  165.7371 C.3     1  UNL1        0.0991
     23 C         142.3765  142.0695  166.8694 C.ar    1  UNL1       -0.0062
     24 C         142.8882  140.7748  167.4280 C.ar    1  UNL1       -0.0030
     25 C         142.1645  140.1084  168.5604 C.ar    1  UNL1        0.0036
     26 C         140.9291  140.7366  169.1341 C.ar    1  UNL1        0.0714
     27 C         140.4174  142.0313  168.5754 C.ar    1  UNL1        0.0036
     28 C         141.1411  142.6977  167.4431 C.ar    1  UNL1       -0.0030
     29 C         140.2054  140.0702  170.2664 C.3     1  UNL1        0.4186
     30 F         139.4817  139.4038  171.3986 F       1  UNL1       -0.1659
     31 F         139.1652  141.1505  170.2373 F       1  UNL1       -0.1659
     32 F         141.2456  138.9899  170.2954 F       1  UNL1       -0.1659
@<TRIPOS>BOND
     1     7     8    1
     2     8     9   am
     3     9    10    2
     4     9    11    1
     5    11    12    1
     6    12    13   ar
     7    13    14   ar
     8    14    15   ar
     9    15    18    1
    10    18    19    1
    11    18    20    2
    12    18    21    2
    13    15    16   ar
    14    16    17   ar
    15     8     1    1
    16     1     2    1
    17     2     3    1
    18     3     4    1
    19     4    22    1
    20    22    23    1
    21    23    24   ar
    22    24    25   ar
    23    25    26   ar
    24    26    29    1
    25    29    30    1
    26    29    31    1
    27    29    32    1
    28    26    27   ar
    29    27    28   ar
    30     4     5    1
    31     5     6    1
    32    17    12   ar
    33     6     1    1
    34    28    23   ar
@<TRIPOS>MOLECULE
*****
 32 34 0 0 0
SMALL
GASTEIGER

@<TRIPOS>ATOM
      1 C         141.6752  138.3922  160.4745 C.3     1  UNL1        0.0782
      2 C         140.2460  138.8473  160.4743 C.3     1  UNL1        0.0372
      3 C         139.3666  138.5580  161.6546 C.3     1  UNL1        0.0741
      4 N         139.9165  137.8136  162.8350 N.3     1  UNL1       -0.2689
      5 C         141.3458  137.3585  162.8353 C.3     1  UNL1        0.0741
      6 C         142.2252  137.6477  161.6550 C.3     1  UNL1        0.0372
      7 C         142.4446  137.8450  158.0541 C.3     1  UNL1        0.1148
      8 N         142.5546  138.6814  159.2943 N.am    1  UNL1       -0.2790
      9 C         143.5442  139.8072  159.3543 C.2     1  UNL1        0.2301
     10 O         144.4235  140.0965  158.1740 O.2     1  UNL1       -0.2745
     11 C         143.6542  140.6437  160.5945 C.3     1  UNL1        0.1116
     12 C         142.4596  141.3975  161.0993 C.ar    1  UNL1       -0.0130
     13 C         141.6638  142.2565  160.1618 C.ar    1  UNL1       -0.0025
     14 C         140.4693  143.0103  160.6666 C.ar    1  UNL1        0.0180
     15 C         140.0705  142.9050  162.1088 C.ar    1  UNL1        0.1057
     16 C         140.8662  142.0460  163.0462 C.ar    1  UNL1        0.0180
     17 C         142.0608  141.2922  162.5414 C.ar    1  UNL1       -0.0025
     18 S         138.8759  143.6588  162.6135 S.O2    1  UNL1        0.0104
     19 C         137.6813  144.4126  163.1183 C.3     1  UNL1        0.1816
     20 O         139.6400  144.0450  163.8451 O.2     1  UNL1       -0.1686
     21 O         138.1117  143.2726  161.3819 O.2     1  UNL1       -0.1686
     22 C         139.0371  137.5243  164.0153 C.3     1  UNL1        0.0991
     23 C         139.1746  138.3352  165.2697 C.ar    1  UNL1       -0.0062
     24 C         140.4172  139.1403  165.5098 C.ar    1  UNL1       -0.0030
     25 C         140.5548  139.9512  166.7642 C.ar    1  UNL1        0.0036
     26 C         139.4497  139.9570  167.7785 C.ar    1  UNL1        0.0714
     27 C         138.2070  139.1518  167.5383 C.ar    1  UNL1        0.0036
     28 C         138.0695  138.3410  166.2839 C.ar    1  UNL1       -0.0030
     29 C         139.5872  140.7679  169.0329 C.3     1  UNL1        0.4186
     30 F         139.7247  141.5788  170.2873 F       1  UNL1       -0.1659
     31 F         140.7497  141.5007  168.4317 F       1  UNL1       -0.1659
     32 F         138.4246  140.0351  169.6340 F       1  UNL1       -0.1659
@<TRIPOS>BOND
     1     7     8    1
     2     8     9   am
     3     9    10    2
     4     9    11    1
     5    11    12    1
     6    12    13   ar
     7    13    14   ar
     8    14    15   ar
     9    15    18    1
    10    18    19    1
    11    18    20    2
    12    18    21    2
    13    15    16   ar
    14    16    17   ar
    15     8     1    1
    16     1     2    1
    17     2     3    1
    18     3     4    1
    19     4    22    1
    20    22    23    1
    21    23    24   ar
    22    24    25   ar
    23    25    26   ar
    24    26    29    1
    25    29    30    1
    26    29    31    1
    27    29    32    1
    28    26    27   ar
    29    27    28   ar
    30     4     5    1
    31     5     6    1
    32    17    12   ar
    33     6     1    1
    34    28    23   ar
@<TRIPOS>MOLECULE
*****
 32 34 0 0 0
SMALL
GASTEIGER

@<TRIPOS>ATOM
      1 C         140.2940  139.2054  160.1233 C.3     1  UNL1        0.0782
      2 C         140.3755  140.6281  160.5915 C.3     1  UNL1        0.0372
      3 C         139.5704  141.0754  161.7754 C.3     1  UNL1        0.0741
      4 N         138.6839  140.0999  162.4913 N.3     1  UNL1       -0.2689
      5 C         138.6024  138.6771  162.0232 C.3     1  UNL1        0.0741
      6 C         139.4075  138.2299  160.8392 C.3     1  UNL1        0.0372
      7 C         140.6271  139.0705  157.5502 C.3     1  UNL1        0.1148
      8 N         141.0991  138.7582  158.9393 N.am    1  UNL1       -0.2790
      9 C         142.3763  137.9986  159.1445 C.2     1  UNL1        0.2301
     10 O         143.1813  137.5514  157.9605 O.2     1  UNL1       -0.2745
     11 C         142.8483  137.6863  160.5336 C.3     1  UNL1        0.1116
     12 C         143.1864  138.8007  161.4791 C.ar    1  UNL1       -0.0130
     13 C         142.6604  138.7781  162.8837 C.ar    1  UNL1       -0.0025
     14 C         142.9986  139.8924  163.8291 C.ar    1  UNL1        0.0180
     15 C         143.8627  141.0293  163.3700 C.ar    1  UNL1        0.1057
     16 C         144.3886  141.0519  161.9655 C.ar    1  UNL1        0.0180
     17 C         144.0505  139.9376  161.0200 C.ar    1  UNL1       -0.0025
     18 S         144.2008  142.1437  164.3156 S.O2    1  UNL1        0.0104
     19 C         144.5389  143.2579  165.2611 C.3     1  UNL1        0.1816
     20 O         143.5578  141.3856  165.4388 O.2     1  UNL1       -0.1686
     21 O         144.8439  142.9017  163.1923 O.2     1  UNL1       -0.1686
     22 C         137.8788  140.5471  163.6753 C.3     1  UNL1        0.0991
     23 C         138.4431  140.4157  165.0588 C.ar    1  UNL1       -0.0062
     24 C         137.9778  139.3077  165.9564 C.ar    1  UNL1       -0.0030
     25 C         138.5422  139.1763  167.3401 C.ar    1  UNL1        0.0036
     26 C         139.5718  140.1529  167.8260 C.ar    1  UNL1        0.0714
     27 C         140.0371  141.2609  166.9283 C.ar    1  UNL1        0.0036
     28 C         139.4728  141.3923  165.5447 C.ar    1  UNL1       -0.0030
     29 C         140.1361  140.0215  169.2095 C.3     1  UNL1        0.4186
     30 F         140.7004  139.8901  170.5931 F       1  UNL1       -0.1659
     31 F         141.4807  139.6956  168.6301 F       1  UNL1       -0.1659
     32 F         138.7915  140.3473  169.7889 F       1  UNL1       -0.1659
@<TRIPOS>BOND
     1     7     8    1
     2     8     9   am
     3     9    10    2
     4     9    11    1
     5    11    12    1
     6    12    13   ar
     7    13    14   ar
     8    14    15   ar
     9    15    18    1
    10    18    19    1
    11    18    20    2
    12    18    21    2
    13    15    16   ar
    14    16    17   ar
    15     8     1    1
    16     1     2    1
    17     2     3    1
    18     3     4    1
    19     4    22    1
    20    22    23    1
    21    23    24   ar
    22    24    25   ar
    23    25    26   ar
    24    26    29    1
    25    29    30    1
    26    29    31    1
    27    29    32    1
    28    26    27   ar
    29    27    28   ar
    30     4     5    1
    31     5     6    1
    32    17    12   ar
    33     6     1    1
    34    28    23   ar
@<TRIPOS>MOLECULE
*****
 32 34 0 0 0
SMALL
GASTEIGER

@<TRIPOS>ATOM
      1 C         141.4011  142.5255  167.5072 C.3     1  UNL1        0.0782
      2 C         140.5999  142.8663  166.2858 C.3     1  UNL1        0.0372
      3 C         141.2729  142.9555  164.9482 C.3     1  UNL1        0.0741
      4 N         142.7470  142.7038  164.8320 N.3     1  UNL1       -0.2689
      5 C         143.5483  142.3629  166.0535 C.3     1  UNL1        0.0741
      6 C         142.8753  142.2738  167.3911 C.3     1  UNL1        0.0372
      7 C         140.3557  143.6885  169.5819 C.3     1  UNL1        0.1148
      8 N         140.7282  142.4364  168.8448 N.am    1  UNL1       -0.2790
      9 C         140.4277  141.0950  169.4453 C.2     1  UNL1        0.2301
     10 O         139.7547  141.0058  170.7829 O.2     1  UNL1       -0.2745
     11 C         140.8002  139.8429  168.7082 C.3     1  UNL1        0.1116
     12 C         140.2394  139.5821  167.3416 C.ar    1  UNL1       -0.0130
     13 C         141.1613  139.2776  166.1982 C.ar    1  UNL1       -0.0025
     14 C         140.6005  139.0168  164.8317 C.ar    1  UNL1        0.0180
     15 C         139.1179  139.0605  164.6085 C.ar    1  UNL1        0.1057
     16 C         138.1960  139.3650  165.7519 C.ar    1  UNL1        0.0180
     17 C         138.7568  139.6258  167.1184 C.ar    1  UNL1       -0.0025
     18 S         138.5571  138.7997  163.2418 S.O2    1  UNL1        0.0104
     19 C         137.9964  138.5390  161.8753 C.3     1  UNL1        0.1816
     20 O         137.8483  140.1211  163.2806 O.2     1  UNL1       -0.1686
     21 O         139.2660  137.4784  163.2031 O.2     1  UNL1       -0.1686
     22 C         143.4200  142.7929  163.4944 C.3     1  UNL1        0.0991
     23 C         143.3188  141.6516  162.5264 C.ar    1  UNL1       -0.0062
     24 C         143.9777  140.3412  162.8405 C.ar    1  UNL1       -0.0030
     25 C         143.8766  139.1998  161.8725 C.ar    1  UNL1        0.0036
     26 C         143.1166  139.3688  160.5904 C.ar    1  UNL1        0.0714
     27 C         142.4576  140.6793  160.2763 C.ar    1  UNL1        0.0036
     28 C         142.5588  141.8206  161.2443 C.ar    1  UNL1       -0.0030
     29 C         143.0154  138.2275  159.6224 C.3     1  UNL1        0.4186
     30 F         142.9143  137.0862  158.6544 F       1  UNL1       -0.1659
     31 F         143.3923  139.1470  158.4988 F       1  UNL1       -0.1659
     32 F         142.6386  137.3080  160.7459 F       1  UNL1       -0.1659
@<TRIPOS>BOND
     1     7     8    1
     2     8     9   am
     3     9    10    2
     4     9    11    1
     5    11    12    1
     6    12    13   ar
     7    13    14   ar
     8    14    15   ar
     9    15    18    1
    10    18    19    1
    11    18    20    2
    12    18    21    2
    13    15    16   ar
    14    16    17   ar
    15     8     1    1
    16     1     2    1
    17     2     3    1
    18     3     4    1
    19     4    22    1
    20    22    23    1
    21    23    24   ar
    22    24    25   ar
    23    25    26   ar
    24    26    29    1
    25    29    30    1
    26    29    31    1
    27    29    32    1
    28    26    27   ar
    29    27    28   ar
    30     4     5    1
    31     5     6    1
    32    17    12   ar
    33     6     1    1
    34    28    23   ar
@<TRIPOS>MOLECULE
*****
 32 34 0 0 0
SMALL
GASTEIGER

@<TRIPOS>ATOM
      1 C         143.0600  140.0121  161.0545 C.3     1  UNL1        0.0782
      2 C         141.7111  139.9102  161.7025 C.3     1  UNL1        0.0372
      3 C         141.5971  139.4706  163.1321 C.3     1  UNL1        0.0741
      4 N         142.8320  139.1330  163.9137 N.3     1  UNL1       -0.2689
      5 C         144.1810  139.2350  163.2657 C.3     1  UNL1        0.0741
      6 C         144.2950  139.6745  161.8361 C.3     1  UNL1        0.0372
      7 C         142.8460  139.4945  158.5175 C.3     1  UNL1        0.1148
      8 N         143.1740  140.4517  159.6249 N.am    1  UNL1       -0.2790
      9 C         143.6159  141.8485  159.3026 C.2     1  UNL1        0.2301
     10 O         143.7299  142.2880  157.8730 O.2     1  UNL1       -0.2745
     11 C         143.9438  142.8056  160.4100 C.3     1  UNL1        0.1116
     12 C         142.8799  143.2198  161.3830 C.ar    1  UNL1       -0.0130
     13 C         143.1984  143.3187  162.8454 C.ar    1  UNL1       -0.0025
     14 C         142.1345  143.7329  163.8183 C.ar    1  UNL1        0.0180
     15 C         140.7522  144.0482  163.3288 C.ar    1  UNL1        0.1057
     16 C         140.4337  143.9493  161.8664 C.ar    1  UNL1        0.0180
     17 C         141.4975  143.5352  160.8935 C.ar    1  UNL1       -0.0025
     18 S         139.6883  144.4624  164.3018 S.O2    1  UNL1        0.0104
     19 C         138.6244  144.8766  165.2747 C.3     1  UNL1        0.1816
     20 O         138.9622  145.1796  163.2025 O.2     1  UNL1       -0.1686
     21 O         140.4143  143.7452  165.4011 O.2     1  UNL1       -0.1686
     22 C         142.7181  138.6935  165.3433 C.3     1  UNL1        0.0991
     23 C         142.8027  139.7048  166.4479 C.ar    1  UNL1       -0.0062
     24 C         143.0111  141.1543  166.1233 C.ar    1  UNL1       -0.0030
     25 C         143.0957  142.1656  167.2279 C.ar    1  UNL1        0.0036
     26 C         142.9719  141.7273  168.6571 C.ar    1  UNL1        0.0714
     27 C         142.7634  140.2777  168.9817 C.ar    1  UNL1        0.0036
     28 C         142.6788  139.2665  167.8771 C.ar    1  UNL1       -0.0030
     29 C         143.0565  142.7386  169.7617 C.3     1  UNL1        0.4186
     30 F         143.1411  143.7499  170.8663 F       1  UNL1       -0.1659
     31 F         144.4839  142.3494  170.0087 F       1  UNL1       -0.1659
     32 F         141.6291  143.1278  169.5147 F       1  UNL1       -0.1659
@<TRIPOS>BOND
     1     7     8    1
     2     8     9   am
     3     9    10    2
     4     9    11    1
     5    11    12    1
     6    12    13   ar
     7    13    14   ar
     8    14    15   ar
     9    15    18    1
    10    18    19    1
    11    18    20    2
    12    18    21    2
    13    15    16   ar
    14    16    17   ar
    15     8     1    1
    16     1     2    1
    17     2     3    1
    18     3     4    1
    19     4    22    1
    20    22    23    1
    21    23    24   ar
    22    24    25   ar
    23    25    26   ar
    24    26    29    1
    25    29    30    1
    26    29    31    1
    27    29    32    1
    28    26    27   ar
    29    27    28   ar
    30     4     5    1
    31     5     6    1
    32    17    12   ar
    33     6     1    1
    34    28    23   ar
