@<TRIPOS>MOLECULE
*****
 43 48 0 0 0
SMALL
GASTEIGER

@<TRIPOS>ATOM
      1 C         142.1499  143.6928  162.1593 C.ar    1  UNL1        0.0620
      2 C         141.3952  144.6016  161.2349 C.ar    1  UNL1        0.0150
      3 C         141.2356  144.2362  159.7889 C.ar    1  UNL1        0.0064
      4 C         140.4809  145.1450  158.8645 C.ar    1  UNL1        0.0002
      5 C         140.3213  144.7795  157.4185 C.ar    1  UNL1        0.0006
      6 C         140.9164  143.5052  156.8969 C.ar    1  UNL1        0.0084
      7 C         141.6711  142.5964  157.8212 C.ar    1  UNL1        0.0465
      8 C         141.8307  142.9619  159.2672 C.ar    1  UNL1        0.0642
      9 C         142.5854  142.0531  160.1917 C.ar    1  UNL1        0.2650
     10 O         143.1805  140.7788  159.6700 O.2     1  UNL1       -0.2666
     11 N         142.7450  142.4185  161.6376 N.ar    1  UNL1       -0.2766
     12 C         143.4998  141.5097  162.5621 C.ar    1  UNL1        0.0666
     13 C         144.9420  141.7833  162.8704 C.ar    1  UNL1        0.0176
     14 C         145.6968  140.8745  163.7948 C.ar    1  UNL1        0.0015
     15 C         145.0093  139.6923  164.4108 C.ar    1  UNL1        0.0001
     16 C         143.5670  139.4187  164.1024 C.ar    1  UNL1        0.0015
     17 C         142.8123  140.3275  163.1781 C.ar    1  UNL1        0.0176
     18 C         143.2078  145.1938  163.9972 C.3     1  UNL1        0.0278
     19 C         142.3096  144.0583  163.6053 C.3     1  UNL1        0.1106
     20 N         141.5709  143.2881  164.6595 N.am    1  UNL1       -0.2972
     21 C         142.3172  142.7007  165.8205 C.2     1  UNL1        0.2518
     22 O         143.8022  142.8834  165.9273 O.2     1  UNL1       -0.2699
     23 H         140.5963  143.1682  164.5894 H       1  UNL1        0.1500
     24 C         141.5786  141.9305  166.8746 C.ar    1  UNL1        0.1218
     25 C         141.8990  141.9114  168.3399 C.ar    1  UNL1        0.1529
     26 N         143.0145  142.6592  169.0082 N.pl3   1  UNL1       -0.3411
     27 N         140.9083  141.0133  169.0195 N.ar    1  UNL1       -0.1489
     28 N         139.9754  140.4773  167.9742 N.ar    1  UNL1       -0.2093
     29 C         138.8023  139.5464  168.0582 C.ar    1  UNL1        0.1037
     30 C         138.0435  139.1822  166.8166 C.ar    1  UNL1        0.0414
     31 C         138.4578  139.7491  165.4910 C.ar    1  UNL1        0.1022
     32 N         139.6309  140.6801  165.4071 N.ar    1  UNL1       -0.2247
     33 C         140.3897  141.0442  166.6487 C.ar    1  UNL1        0.1709
     34 H         143.6160  143.2268  168.4741 H       1  UNL1        0.1438
     35 H         143.1450  142.5824  169.9810 H       1  UNL1        0.1438
     36 C         142.2662  141.3222  157.2996 C.1     1  UNL1       -0.0595
     37 C         142.8613  140.0479  156.7780 C.1     1  UNL1       -0.0566
     38 C         143.4564  138.7736  156.2563 C.ar    1  UNL1        0.0815
     39 C         144.6525  138.6621  155.3580 C.ar    1  UNL1        0.1299
     40 N         144.8952  137.2067  155.0879 N.ar    1  UNL1       -0.1669
     41 N         143.8491  136.4188  155.8193 N.ar    1  UNL1       -0.2467
     42 C         143.7157  134.9247  155.8272 C.3     1  UNL1        0.1538
     43 C         142.9599  137.3872  156.5414 C.ar    1  UNL1        0.1049
@<TRIPOS>BOND
     1    19    18    1
     2    19    20    1
     3    20    21   am
     4    21    22    2
     5    21    24    1
     6    24    25   ar
     7    25    26    1
     8    25    27   ar
     9    27    28   ar
    10    28    29   ar
    11    29    30   ar
    12    30    31   ar
    13    31    32   ar
    14    32    33   ar
    15    19     1    1
    16     1     2   ar
    17     2     3   ar
    18     3     4   ar
    19     4     5   ar
    20     5     6   ar
    21     6     7   ar
    22     7    36    1
    23    36    37    3
    24    37    38    1
    25    38    39   ar
    26    39    40   ar
    27    40    41   ar
    28    41    42    1
    29    41    43   ar
    30     7     8   ar
    31     8     9   ar
    32     9    10    2
    33     9    11   ar
    34    11    12    1
    35    12    13   ar
    36    13    14   ar
    37    14    15   ar
    38    15    16   ar
    39    16    17   ar
    40    33    24   ar
    41    11     1   ar
    42    17    12   ar
    43    33    28   ar
    44     8     3   ar
    45    43    38   ar
    46    20    23    1
    47    26    34    1
    48    26    35    1
@<TRIPOS>MOLECULE
*****
 43 48 0 0 0
SMALL
GASTEIGER

@<TRIPOS>ATOM
      1 C         142.0644  141.4740  161.8612 C.ar    1  UNL1        0.0620
      2 C         143.0116  142.3116  161.0543 C.ar    1  UNL1        0.0150
      3 C         143.5445  141.7960  159.7503 C.ar    1  UNL1        0.0064
      4 C         144.4918  142.6335  158.9435 C.ar    1  UNL1        0.0002
      5 C         145.0246  142.1179  157.6396 C.ar    1  UNL1        0.0006
      6 C         144.6102  140.7647  157.1426 C.ar    1  UNL1        0.0084
      7 C         143.6629  139.9271  157.9495 C.ar    1  UNL1        0.0465
      8 C         143.1301  140.4427  159.2534 C.ar    1  UNL1        0.0642
      9 C         142.1828  139.6051  160.0603 C.ar    1  UNL1        0.2650
     10 O         141.7684  138.2519  159.5633 O.2     1  UNL1       -0.2666
     11 N         141.6500  140.1208  161.3642 N.ar    1  UNL1       -0.2766
     12 C         140.7027  139.2832  162.1712 C.ar    1  UNL1        0.0666
     13 C         139.2224  139.4843  162.0363 C.ar    1  UNL1        0.0176
     14 C         138.2751  138.6468  162.8432 C.ar    1  UNL1        0.0015
     15 C         138.8081  137.6081  163.7850 C.ar    1  UNL1        0.0001
     16 C         140.2884  137.4070  163.9198 C.ar    1  UNL1        0.0015
     17 C         141.2357  138.2445  163.1129 C.ar    1  UNL1        0.0176
     18 C         140.4353  143.0134  163.1751 C.3     1  UNL1        0.0278
     19 C         141.5315  141.9896  163.1652 C.3     1  UNL1        0.1106
     20 N         142.0949  141.4815  164.4591 N.am    1  UNL1       -0.2972
     21 C         141.1839  140.8863  165.4914 C.2     1  UNL1        0.2518
     22 O         139.7095  140.7993  165.2298 O.2     1  UNL1       -0.2699
     23 H         143.0626  141.5386  164.6308 H       1  UNL1        0.1500
     24 C         141.7473  140.3781  166.7854 C.ar    1  UNL1        0.1218
     25 C         142.7682  139.2894  166.9354 C.ar    1  UNL1        0.1529
     26 N         143.4050  138.5178  165.8178 N.pl3   1  UNL1       -0.3411
     27 N         143.0406  139.1078  168.3993 N.ar    1  UNL1       -0.1489
     28 N         142.1880  140.0843  169.1540 N.ar    1  UNL1       -0.2093
     29 C         142.0362  140.3600  170.6206 C.ar    1  UNL1        0.1037
     30 C         141.0851  141.4208  171.0897 C.ar    1  UNL1        0.0414
     31 C         140.2858  142.2058  170.0923 C.ar    1  UNL1        0.1022
     32 N         140.4376  141.9301  168.6257 N.ar    1  UNL1       -0.2247
     33 C         141.3887  140.8693  168.1566 C.ar    1  UNL1        0.1709
     34 H         143.1597  138.7108  164.8841 H       1  UNL1        0.1438
     35 H         144.0683  137.8183  166.0180 H       1  UNL1        0.1438
     36 C         143.2485  138.5738  157.4525 C.1     1  UNL1       -0.0595
     37 C         142.8341  137.2206  156.9555 C.1     1  UNL1       -0.0566
     38 C         142.4197  135.8673  156.4585 C.ar    1  UNL1        0.0815
     39 C         141.3453  135.5897  155.4493 C.ar    1  UNL1        0.1299
     40 N         141.2685  134.1049  155.2505 N.ar    1  UNL1       -0.1669
     41 N         142.2954  133.4649  156.1369 N.ar    1  UNL1       -0.2467
     42 C         142.5638  131.9939  156.2558 C.3     1  UNL1        0.1538
     43 C         143.0069  134.5541  156.8835 C.ar    1  UNL1        0.1049
@<TRIPOS>BOND
     1    19    18    1
     2    19    20    1
     3    20    21   am
     4    21    22    2
     5    21    24    1
     6    24    25   ar
     7    25    26    1
     8    25    27   ar
     9    27    28   ar
    10    28    29   ar
    11    29    30   ar
    12    30    31   ar
    13    31    32   ar
    14    32    33   ar
    15    19     1    1
    16     1     2   ar
    17     2     3   ar
    18     3     4   ar
    19     4     5   ar
    20     5     6   ar
    21     6     7   ar
    22     7    36    1
    23    36    37    3
    24    37    38    1
    25    38    39   ar
    26    39    40   ar
    27    40    41   ar
    28    41    42    1
    29    41    43   ar
    30     7     8   ar
    31     8     9   ar
    32     9    10    2
    33     9    11   ar
    34    11    12    1
    35    12    13   ar
    36    13    14   ar
    37    14    15   ar
    38    15    16   ar
    39    16    17   ar
    40    33    24   ar
    41    11     1   ar
    42    17    12   ar
    43    33    28   ar
    44     8     3   ar
    45    43    38   ar
    46    20    23    1
    47    26    34    1
    48    26    35    1
@<TRIPOS>MOLECULE
*****
 43 48 0 0 0
SMALL
GASTEIGER

@<TRIPOS>ATOM
      1 C         143.2469  140.4417  162.0221 C.ar    1  UNL1        0.0620
      2 C         143.3090  139.1897  161.1985 C.ar    1  UNL1        0.0150
      3 C         142.7031  139.1636  159.8265 C.ar    1  UNL1        0.0064
      4 C         142.7653  137.9116  159.0028 C.ar    1  UNL1        0.0002
      5 C         142.1594  137.8856  157.6309 C.ar    1  UNL1        0.0006
      6 C         141.4913  139.1116  157.0827 C.ar    1  UNL1        0.0084
      7 C         141.4292  140.3636  157.9064 C.ar    1  UNL1        0.0465
      8 C         142.0351  140.3896  159.2783 C.ar    1  UNL1        0.0642
      9 C         141.9729  141.6417  160.1020 C.ar    1  UNL1        0.2650
     10 O         141.3049  142.8678  159.5538 O.2     1  UNL1       -0.2666
     11 N         142.5788  141.6677  161.4739 N.ar    1  UNL1       -0.2766
     12 C         142.5167  142.9198  162.2977 C.ar    1  UNL1        0.0666
     13 C         141.2823  143.2365  163.0889 C.ar    1  UNL1        0.0176
     14 C         141.2201  144.4885  163.9126 C.ar    1  UNL1        0.0015
     15 C         142.3923  145.4238  163.9452 C.ar    1  UNL1        0.0001
     16 C         143.6267  145.1071  163.1539 C.ar    1  UNL1        0.0015
     17 C         143.6889  143.8551  162.3302 C.ar    1  UNL1        0.0176
     18 C         145.3336  140.6429  163.5568 C.3     1  UNL1        0.0278
     19 C         143.8528  140.4677  163.3941 C.3     1  UNL1        0.1106
     20 N         142.9778  140.3187  164.6034 N.am    1  UNL1       -0.2972
     21 C         143.0163  141.3529  165.6891 C.2     1  UNL1        0.2518
     22 O         143.9298  142.5362  165.5655 O.2     1  UNL1       -0.2699
     23 H         142.3783  139.5420  164.6844 H       1  UNL1        0.1500
     24 C         142.1414  141.2038  166.8983 C.ar    1  UNL1        0.1218
     25 C         142.4187  141.7641  168.2618 C.ar    1  UNL1        0.1529
     26 N         143.6197  142.5720  168.6554 N.pl3   1  UNL1       -0.3411
     27 N         141.2842  141.3748  169.1625 N.ar    1  UNL1       -0.1489
     28 N         140.3057  140.5739  168.3557 N.ar    1  UNL1       -0.2093
     29 C         139.0007  139.9272  168.7145 C.ar    1  UNL1        0.1037
     30 C         138.2255  139.1747  167.6739 C.ar    1  UNL1        0.0414
     31 C         138.7552  139.0690  166.2745 C.ar    1  UNL1        0.1022
     32 N         140.0602  139.7158  165.9158 N.ar    1  UNL1       -0.2247
     33 C         140.8354  140.4682  166.9564 C.ar    1  UNL1        0.1709
     34 H         144.3150  142.7770  167.9892 H       1  UNL1        0.1438
     35 H         143.7128  142.8971  169.5800 H       1  UNL1        0.1438
     36 C         140.7611  141.5897  157.3581 C.1     1  UNL1       -0.0595
     37 C         140.0930  142.8157  156.8099 C.1     1  UNL1       -0.0566
     38 C         139.4250  144.0417  156.2617 C.ar    1  UNL1        0.0815
     39 C         138.1901  144.0670  155.4106 C.ar    1  UNL1        0.1299
     40 N         137.8764  145.4986  155.0912 N.ar    1  UNL1       -0.1669
     41 N         138.9174  146.3582  155.7449 N.ar    1  UNL1       -0.2467
     42 C         138.9889  147.8553  155.6857 C.3     1  UNL1        0.1538
     43 C         139.8745  145.4578  156.4683 C.ar    1  UNL1        0.1049
@<TRIPOS>BOND
     1    19    18    1
     2    19    20    1
     3    20    21   am
     4    21    22    2
     5    21    24    1
     6    24    25   ar
     7    25    26    1
     8    25    27   ar
     9    27    28   ar
    10    28    29   ar
    11    29    30   ar
    12    30    31   ar
    13    31    32   ar
    14    32    33   ar
    15    19     1    1
    16     1     2   ar
    17     2     3   ar
    18     3     4   ar
    19     4     5   ar
    20     5     6   ar
    21     6     7   ar
    22     7    36    1
    23    36    37    3
    24    37    38    1
    25    38    39   ar
    26    39    40   ar
    27    40    41   ar
    28    41    42    1
    29    41    43   ar
    30     7     8   ar
    31     8     9   ar
    32     9    10    2
    33     9    11   ar
    34    11    12    1
    35    12    13   ar
    36    13    14   ar
    37    14    15   ar
    38    15    16   ar
    39    16    17   ar
    40    33    24   ar
    41    11     1   ar
    42    17    12   ar
    43    33    28   ar
    44     8     3   ar
    45    43    38   ar
    46    20    23    1
    47    26    34    1
    48    26    35    1
@<TRIPOS>MOLECULE
*****
 43 48 0 0 0
SMALL
GASTEIGER

@<TRIPOS>ATOM
      1 C         142.0378  143.6635  162.2018 C.ar    1  UNL1        0.0620
      2 C         141.2150  144.5137  161.2797 C.ar    1  UNL1        0.0150
      3 C         141.0219  144.1003  159.8507 C.ar    1  UNL1        0.0064
      4 C         140.1991  144.9505  158.9287 C.ar    1  UNL1        0.0002
      5 C         140.0061  144.5371  157.4998 C.ar    1  UNL1        0.0006
      6 C         140.6358  143.2735  156.9929 C.ar    1  UNL1        0.0084
      7 C         141.4586  142.4234  157.9150 C.ar    1  UNL1        0.0465
      8 C         141.6516  142.8368  159.3439 C.ar    1  UNL1        0.0642
      9 C         142.4744  141.9866  160.2660 C.ar    1  UNL1        0.2650
     10 O         143.1041  140.7230  159.7592 O.2     1  UNL1       -0.2666
     11 N         142.6675  142.4000  161.6949 N.ar    1  UNL1       -0.2766
     12 C         143.4903  141.5498  162.6171 C.ar    1  UNL1        0.0666
     13 C         144.8951  141.9525  162.9548 C.ar    1  UNL1        0.0176
     14 C         145.7179  141.1024  163.8769 C.ar    1  UNL1        0.0015
     15 C         145.1358  139.8496  164.4612 C.ar    1  UNL1        0.0001
     16 C         143.7310  139.4468  164.1235 C.ar    1  UNL1        0.0015
     17 C         142.9082  140.2969  163.2014 C.ar    1  UNL1        0.0176
     18 C         142.6843  145.4697  163.9539 C.3     1  UNL1        0.0278
     19 C         142.2308  144.0769  163.6308 C.3     1  UNL1        0.1106
     20 N         141.9705  143.0974  164.7366 N.am    1  UNL1       -0.2972
     21 C         140.5780  142.5972  164.9830 C.2     1  UNL1        0.2518
     22 O         139.4459  143.0764  164.1236 O.2     1  UNL1       -0.2699
     23 H         142.7135  142.7828  165.3006 H       1  UNL1        0.1500
     24 C         140.3176  141.6177  166.0888 C.ar    1  UNL1        0.1218
     25 C         139.1630  140.6635  166.1677 C.ar    1  UNL1        0.1529
     26 N         138.0659  140.5212  165.1547 N.pl3   1  UNL1       -0.3411
     27 N         139.2979  139.8765  167.4375 N.ar    1  UNL1       -0.1489
     28 N         140.5360  140.3443  168.1434 N.ar    1  UNL1       -0.2093
     29 C         141.1710  139.9294  169.4375 C.ar    1  UNL1        0.1037
     30 C         142.4361  140.5906  169.8980 C.ar    1  UNL1        0.0414
     31 C         143.0663  141.6667  169.0644 C.ar    1  UNL1        0.1022
     32 N         142.4314  142.0816  167.7703 N.ar    1  UNL1       -0.2247
     33 C         141.1662  141.4204  167.3098 C.ar    1  UNL1        0.1709
     34 H         138.0641  141.0862  164.3484 H       1  UNL1        0.1438
     35 H         137.3477  139.8629  165.2960 H       1  UNL1        0.1438
     36 C         142.0883  141.1598  157.4082 C.1     1  UNL1       -0.0595
     37 C         142.7180  139.8962  156.9013 C.1     1  UNL1       -0.0566
     38 C         143.3477  138.6327  156.3945 C.ar    1  UNL1        0.0815
     39 C         144.5109  138.5439  155.4516 C.ar    1  UNL1        0.1299
     40 N         144.8069  137.0924  155.2159 N.ar    1  UNL1       -0.1669
     41 N         143.8266  136.2841  156.0131 N.ar    1  UNL1       -0.2467
     42 C         143.7598  134.7867  156.0717 C.3     1  UNL1        0.1538
     43 C         142.9248  137.2360  156.7415 C.ar    1  UNL1        0.1049
@<TRIPOS>BOND
     1    19    18    1
     2    19    20    1
     3    20    21   am
     4    21    22    2
     5    21    24    1
     6    24    25   ar
     7    25    26    1
     8    25    27   ar
     9    27    28   ar
    10    28    29   ar
    11    29    30   ar
    12    30    31   ar
    13    31    32   ar
    14    32    33   ar
    15    19     1    1
    16     1     2   ar
    17     2     3   ar
    18     3     4   ar
    19     4     5   ar
    20     5     6   ar
    21     6     7   ar
    22     7    36    1
    23    36    37    3
    24    37    38    1
    25    38    39   ar
    26    39    40   ar
    27    40    41   ar
    28    41    42    1
    29    41    43   ar
    30     7     8   ar
    31     8     9   ar
    32     9    10    2
    33     9    11   ar
    34    11    12    1
    35    12    13   ar
    36    13    14   ar
    37    14    15   ar
    38    15    16   ar
    39    16    17   ar
    40    33    24   ar
    41    11     1   ar
    42    17    12   ar
    43    33    28   ar
    44     8     3   ar
    45    43    38   ar
    46    20    23    1
    47    26    34    1
    48    26    35    1
@<TRIPOS>MOLECULE
*****
 43 48 0 0 0
SMALL
GASTEIGER

@<TRIPOS>ATOM
      1 C         141.3856  140.9704  159.0185 C.ar    1  UNL1        0.0620
      2 C         142.0992  141.5615  157.8389 C.ar    1  UNL1        0.0150
      3 C         142.7891  140.6654  156.8535 C.ar    1  UNL1        0.0064
      4 C         143.5027  141.2565  155.6739 C.ar    1  UNL1        0.0002
      5 C         144.1925  140.3604  154.6885 C.ar    1  UNL1        0.0006
      6 C         144.1687  138.8732  154.8827 C.ar    1  UNL1        0.0084
      7 C         143.4551  138.2821  156.0622 C.ar    1  UNL1        0.0465
      8 C         142.7653  139.1782  157.0476 C.ar    1  UNL1        0.0642
      9 C         142.0517  138.5871  158.2272 C.ar    1  UNL1        0.2650
     10 O         142.0279  137.0999  158.4213 O.2     1  UNL1       -0.2666
     11 N         141.3618  139.4832  159.2126 N.ar    1  UNL1       -0.2766
     12 C         140.6482  138.8922  160.3922 C.ar    1  UNL1        0.0666
     13 C         139.1562  138.7393  160.3667 C.ar    1  UNL1        0.0176
     14 C         138.4425  138.1483  161.5462 C.ar    1  UNL1        0.0015
     15 C         139.2208  137.7101  162.7513 C.ar    1  UNL1        0.0001
     16 C         140.7128  137.8630  162.7768 C.ar    1  UNL1        0.0015
     17 C         141.4265  138.4540  161.5973 C.ar    1  UNL1        0.0176
     18 C         139.4483  142.5987  159.6066 C.3     1  UNL1        0.0278
     19 C         140.6957  141.8666  160.0040 C.3     1  UNL1        0.1106
     20 N         141.2533  142.0305  161.3868 N.am    1  UNL1       -0.2972
     21 C         142.2333  143.1288  161.6750 C.2     1  UNL1        0.2518
     22 O         142.6558  144.0632  160.5804 O.2     1  UNL1       -0.2699
     23 H         140.9759  141.4171  162.1053 H       1  UNL1        0.1500
     24 C         142.7909  143.2927  163.0579 C.ar    1  UNL1        0.1218
     25 C         143.6756  144.4103  163.5251 C.ar    1  UNL1        0.1529
     26 N         144.1581  145.5602  162.6915 N.pl3   1  UNL1       -0.3411
     27 N         143.9931  144.1761  164.9723 N.ar    1  UNL1       -0.1489
     28 N         143.3046  142.9138  165.3995 N.ar    1  UNL1       -0.2093
     29 C         143.2583  142.1909  166.7130 C.ar    1  UNL1        0.1037
     30 C         142.4689  140.9221  166.8433 C.ar    1  UNL1        0.0414
     31 C         141.7259  140.3761  165.6601 C.ar    1  UNL1        0.1022
     32 N         141.7723  141.0990  164.3466 N.ar    1  UNL1       -0.2247
     33 C         142.5616  142.3678  164.2163 C.ar    1  UNL1        0.1709
     34 H         143.8941  145.6272  161.7454 H       1  UNL1        0.1438
     35 H         144.7387  146.2479  163.0905 H       1  UNL1        0.1438
     36 C         143.4314  136.7949  156.2563 C.1     1  UNL1       -0.0595
     37 C         143.4076  135.3077  156.4505 C.1     1  UNL1       -0.0566
     38 C         143.3838  133.8205  156.6446 C.ar    1  UNL1        0.0815
     39 C         142.3760  132.8718  156.0664 C.ar    1  UNL1        0.1299
     40 N         142.7330  131.4859  156.5154 N.ar    1  UNL1       -0.1669
     41 N         143.9615  131.5779  157.3712 N.ar    1  UNL1       -0.2467
     42 C         144.6643  130.4289  158.0313 C.3     1  UNL1        0.1538
     43 C         144.3637  133.0208  157.4511 C.ar    1  UNL1        0.1049
@<TRIPOS>BOND
     1    19    18    1
     2    19    20    1
     3    20    21   am
     4    21    22    2
     5    21    24    1
     6    24    25   ar
     7    25    26    1
     8    25    27   ar
     9    27    28   ar
    10    28    29   ar
    11    29    30   ar
    12    30    31   ar
    13    31    32   ar
    14    32    33   ar
    15    19     1    1
    16     1     2   ar
    17     2     3   ar
    18     3     4   ar
    19     4     5   ar
    20     5     6   ar
    21     6     7   ar
    22     7    36    1
    23    36    37    3
    24    37    38    1
    25    38    39   ar
    26    39    40   ar
    27    40    41   ar
    28    41    42    1
    29    41    43   ar
    30     7     8   ar
    31     8     9   ar
    32     9    10    2
    33     9    11   ar
    34    11    12    1
    35    12    13   ar
    36    13    14   ar
    37    14    15   ar
    38    15    16   ar
    39    16    17   ar
    40    33    24   ar
    41    11     1   ar
    42    17    12   ar
    43    33    28   ar
    44     8     3   ar
    45    43    38   ar
    46    20    23    1
    47    26    34    1
    48    26    35    1
@<TRIPOS>MOLECULE
*****
 43 48 0 0 0
SMALL
GASTEIGER

@<TRIPOS>ATOM
      1 C         143.0647  140.4539  162.1762 C.ar    1  UNL1        0.0620
      2 C         143.1061  139.1861  161.3756 C.ar    1  UNL1        0.0150
      3 C         142.5124  139.1490  159.9985 C.ar    1  UNL1        0.0064
      4 C         142.5538  137.8812  159.1979 C.ar    1  UNL1        0.0002
      5 C         141.9602  137.8442  157.8209 C.ar    1  UNL1        0.0006
      6 C         141.3252  139.0748  157.2445 C.ar    1  UNL1        0.0084
      7 C         141.2838  140.3426  158.0451 C.ar    1  UNL1        0.0465
      8 C         141.8774  140.3797  159.4221 C.ar    1  UNL1        0.0642
      9 C         141.8361  141.6475  160.2228 C.ar    1  UNL1        0.2650
     10 O         141.2011  142.8782  159.6464 O.2     1  UNL1       -0.2666
     11 N         142.4297  141.6846  161.5998 N.ar    1  UNL1       -0.2766
     12 C         142.3884  142.9524  162.4005 C.ar    1  UNL1        0.0666
     13 C         143.5970  143.8384  162.4651 C.ar    1  UNL1        0.0176
     14 C         143.5557  145.1061  163.2657 C.ar    1  UNL1        0.0015
     15 C         142.3058  145.4879  164.0018 C.ar    1  UNL1        0.0001
     16 C         141.0971  144.6019  163.9373 C.ar    1  UNL1        0.0015
     17 C         141.1384  143.3341  163.1366 C.ar    1  UNL1        0.0176
     18 C         145.1460  140.4195  163.7309 C.3     1  UNL1        0.0278
     19 C         143.6583  140.4910  163.5533 C.3     1  UNL1        0.1106
     20 N         142.7642  140.5996  164.7528 N.am    1  UNL1       -0.2972
     21 C         141.8601  139.4604  165.1199 C.2     1  UNL1        0.2518
     22 O         141.8502  138.2126  164.2876 O.2     1  UNL1       -0.2699
     23 H         142.7707  141.4187  165.2991 H       1  UNL1        0.1500
     24 C         140.9660  139.5691  166.3194 C.ar    1  UNL1        0.1218
     25 C         139.5054  139.2302  166.3639 C.ar    1  UNL1        0.1529
     26 N         138.6826  138.7232  165.2168 N.pl3   1  UNL1       -0.3411
     27 N         139.0121  139.4873  167.7570 N.ar    1  UNL1       -0.1489
     28 N         140.1678  139.9851  168.5734 N.ar    1  UNL1       -0.2093
     29 C         140.2767  140.3989  170.0111 C.ar    1  UNL1        0.1037
     30 C         141.5930  140.8633  170.5602 C.ar    1  UNL1        0.0414
     31 C         142.8005  140.9138  169.6718 C.ar    1  UNL1        0.1022
     32 N         142.6917  140.5000  168.2341 N.ar    1  UNL1       -0.2247
     33 C         141.3753  140.0356  167.6849 C.ar    1  UNL1        0.1709
     34 H         139.0989  138.5855  164.3353 H       1  UNL1        0.1438
     35 H         137.7262  138.5281  165.3454 H       1  UNL1        0.1438
     36 C         140.6488  141.5733  157.4687 C.1     1  UNL1       -0.0595
     37 C         140.0139  142.8040  156.8923 C.1     1  UNL1       -0.0566
     38 C         139.3789  144.0346  156.3159 C.ar    1  UNL1        0.0815
     39 C         138.1771  144.0691  155.4190 C.ar    1  UNL1        0.1299
     40 N         137.8897  145.5027  155.0840 N.ar    1  UNL1       -0.1669
     41 N         138.9138  146.3543  155.7739 N.ar    1  UNL1       -0.2467
     42 C         139.0021  147.8504  155.7131 C.3     1  UNL1        0.1538
     43 C         139.8342  145.4469  156.5353 C.ar    1  UNL1        0.1049
@<TRIPOS>BOND
     1    19    18    1
     2    19    20    1
     3    20    21   am
     4    21    22    2
     5    21    24    1
     6    24    25   ar
     7    25    26    1
     8    25    27   ar
     9    27    28   ar
    10    28    29   ar
    11    29    30   ar
    12    30    31   ar
    13    31    32   ar
    14    32    33   ar
    15    19     1    1
    16     1     2   ar
    17     2     3   ar
    18     3     4   ar
    19     4     5   ar
    20     5     6   ar
    21     6     7   ar
    22     7    36    1
    23    36    37    3
    24    37    38    1
    25    38    39   ar
    26    39    40   ar
    27    40    41   ar
    28    41    42    1
    29    41    43   ar
    30     7     8   ar
    31     8     9   ar
    32     9    10    2
    33     9    11   ar
    34    11    12    1
    35    12    13   ar
    36    13    14   ar
    37    14    15   ar
    38    15    16   ar
    39    16    17   ar
    40    33    24   ar
    41    11     1   ar
    42    17    12   ar
    43    33    28   ar
    44     8     3   ar
    45    43    38   ar
    46    20    23    1
    47    26    34    1
    48    26    35    1
@<TRIPOS>MOLECULE
*****
 43 48 0 0 0
SMALL
GASTEIGER

@<TRIPOS>ATOM
      1 C         141.6376  140.7389  161.9261 C.ar    1  UNL1        0.0620
      2 C         142.4913  139.7299  161.2168 C.ar    1  UNL1        0.0150
      3 C         142.0951  139.2355  159.8571 C.ar    1  UNL1        0.0064
      4 C         142.9489  138.2266  159.1478 C.ar    1  UNL1        0.0002
      5 C         142.5527  137.7322  157.7882 C.ar    1  UNL1        0.0006
      6 C         141.3027  138.2467  157.1379 C.ar    1  UNL1        0.0084
      7 C         140.4490  139.2556  157.8472 C.ar    1  UNL1        0.0465
      8 C         140.8452  139.7500  159.2068 C.ar    1  UNL1        0.0642
      9 C         139.9914  140.7590  159.9162 C.ar    1  UNL1        0.2650
     10 O         138.7415  141.2735  159.2659 O.2     1  UNL1       -0.2666
     11 N         140.3876  141.2534  161.2758 N.ar    1  UNL1       -0.2766
     12 C         139.5339  142.2624  161.9852 C.ar    1  UNL1        0.0666
     13 C         139.8485  143.7245  161.8701 C.ar    1  UNL1        0.0176
     14 C         138.9948  144.7334  162.5794 C.ar    1  UNL1        0.0015
     15 C         137.8265  144.2803  163.4038 C.ar    1  UNL1        0.0001
     16 C         137.5119  142.8182  163.5189 C.ar    1  UNL1        0.0015
     17 C         138.3656  141.8092  162.8096 C.ar    1  UNL1        0.0176
     18 C         143.0045  142.3692  163.4173 C.3     1  UNL1        0.0278
     19 C         142.0338  141.2333  163.2858 C.3     1  UNL1        0.1106
     20 N         141.4592  140.5918  164.5139 N.am    1  UNL1       -0.2972
     21 C         140.7407  141.4283  165.5307 C.2     1  UNL1        0.2518
     22 O         140.5968  142.9064  165.3194 O.2     1  UNL1       -0.2699
     23 H         141.5536  139.6217  164.6526 H       1  UNL1        0.1500
     24 C         140.1661  140.7868  166.7589 C.ar    1  UNL1        0.1218
     25 C         139.0106  139.8310  166.7959 C.ar    1  UNL1        0.1529
     26 N         138.2269  139.3489  165.6113 N.pl3   1  UNL1       -0.3411
     27 N         138.7765  139.4420  168.2255 N.ar    1  UNL1       -0.1489
     28 N         139.7872  140.1573  169.0721 N.ar    1  UNL1       -0.2093
     29 C         140.0365  140.1593  170.5512 C.ar    1  UNL1        0.1037
     30 C         141.1446  140.9924  171.1239 C.ar    1  UNL1        0.0414
     31 C         142.0035  141.8235  170.2174 C.ar    1  UNL1        0.1022
     32 N         141.7541  141.8216  168.7383 N.ar    1  UNL1       -0.2247
     33 C         140.6460  140.9885  168.1656 C.ar    1  UNL1        0.1709
     34 H         138.4579  139.6631  164.7073 H       1  UNL1        0.1438
     35 H         137.4816  138.7183  165.7377 H       1  UNL1        0.1438
     36 C         139.1990  139.7701  157.1970 C.1     1  UNL1       -0.0595
     37 C         137.9491  140.2847  156.5467 C.1     1  UNL1       -0.0566
     38 C         136.6991  140.7992  155.8964 C.ar    1  UNL1        0.0815
     39 C         136.6322  141.6355  154.6529 C.ar    1  UNL1        0.1299
     40 N         135.1883  141.9209  154.3634 N.ar    1  UNL1       -0.1669
     41 N         134.3629  141.2610  155.4279 N.ar    1  UNL1       -0.2467
     42 C         132.8665  141.2894  155.5276 C.3     1  UNL1        0.1538
     43 C         135.2966  140.5678  156.3753 C.ar    1  UNL1        0.1049
@<TRIPOS>BOND
     1    19    18    1
     2    19    20    1
     3    20    21   am
     4    21    22    2
     5    21    24    1
     6    24    25   ar
     7    25    26    1
     8    25    27   ar
     9    27    28   ar
    10    28    29   ar
    11    29    30   ar
    12    30    31   ar
    13    31    32   ar
    14    32    33   ar
    15    19     1    1
    16     1     2   ar
    17     2     3   ar
    18     3     4   ar
    19     4     5   ar
    20     5     6   ar
    21     6     7   ar
    22     7    36    1
    23    36    37    3
    24    37    38    1
    25    38    39   ar
    26    39    40   ar
    27    40    41   ar
    28    41    42    1
    29    41    43   ar
    30     7     8   ar
    31     8     9   ar
    32     9    10    2
    33     9    11   ar
    34    11    12    1
    35    12    13   ar
    36    13    14   ar
    37    14    15   ar
    38    15    16   ar
    39    16    17   ar
    40    33    24   ar
    41    11     1   ar
    42    17    12   ar
    43    33    28   ar
    44     8     3   ar
    45    43    38   ar
    46    20    23    1
    47    26    34    1
    48    26    35    1
@<TRIPOS>MOLECULE
*****
 43 48 0 0 0
SMALL
GASTEIGER

@<TRIPOS>ATOM
      1 C         141.1345  141.5876  160.3356 C.ar    1  UNL1        0.0620
      2 C         141.9861  142.3377  159.3547 C.ar    1  UNL1        0.0150
      3 C         142.6825  141.6010  158.2490 C.ar    1  UNL1        0.0064
      4 C         143.5340  142.3511  157.2681 C.ar    1  UNL1        0.0002
      5 C         144.2303  141.6145  156.1624 C.ar    1  UNL1        0.0006
      6 C         144.0750  140.1278  156.0376 C.ar    1  UNL1        0.0084
      7 C         143.2234  139.3777  157.0185 C.ar    1  UNL1        0.0465
      8 C         142.5271  140.1143  158.1242 C.ar    1  UNL1        0.0642
      9 C         141.6755  139.3642  159.1051 C.ar    1  UNL1        0.2650
     10 O         141.5201  137.8775  158.9803 O.2     1  UNL1       -0.2666
     11 N         140.9792  140.1009  160.2108 N.ar    1  UNL1       -0.2766
     12 C         140.1276  139.3508  161.1917 C.ar    1  UNL1        0.0666
     13 C         140.7600  138.6813  162.3757 C.ar    1  UNL1        0.0176
     14 C         139.9084  137.9312  163.3566 C.ar    1  UNL1        0.0015
     15 C         138.4245  137.8507  163.1535 C.ar    1  UNL1        0.0001
     16 C         137.7920  138.5202  161.9695 C.ar    1  UNL1        0.0015
     17 C         138.6436  139.2703  160.9886 C.ar    1  UNL1        0.0176
     18 C         139.4203  143.3769  161.1165 C.3     1  UNL1        0.0278
     19 C         140.4382  142.3242  161.4413 C.3     1  UNL1        0.1106
     20 N         140.7599  142.0081  162.8719 N.am    1  UNL1       -0.2972
     21 C         141.8918  142.7124  163.5594 C.2     1  UNL1        0.2518
     22 O         142.7019  143.7329  162.8164 O.2     1  UNL1       -0.2699
     23 H         140.2282  141.3383  163.3596 H       1  UNL1        0.1500
     24 C         142.2135  142.3963  164.9900 C.ar    1  UNL1        0.1218
     25 C         143.4423  142.8286  165.7337 C.ar    1  UNL1        0.1529
     26 N         144.5653  143.6529  165.1774 N.pl3   1  UNL1       -0.3411
     27 N         143.3511  142.2918  167.1314 N.ar    1  UNL1       -0.1489
     28 N         142.0659  141.5278  167.2516 N.ar    1  UNL1       -0.2093
     29 C         141.4450  140.7817  168.3951 C.ar    1  UNL1        0.1037
     30 C         140.1209  140.1001  168.2152 C.ar    1  UNL1        0.0414
     31 C         139.4179  140.1647  166.8918 C.ar    1  UNL1        0.1022
     32 N         140.0388  140.9108  165.7482 N.ar    1  UNL1       -0.2247
     33 C         141.3628  141.5924  165.9281 C.ar    1  UNL1        0.1709
     34 H         144.5341  143.9601  164.2425 H       1  UNL1        0.1438
     35 H         145.3334  143.8867  165.7470 H       1  UNL1        0.1438
     36 C         143.0681  137.8910  156.8937 C.1     1  UNL1       -0.0595
     37 C         142.9127  136.4043  156.7689 C.1     1  UNL1       -0.0566
     38 C         142.7574  134.9176  156.6441 C.ar    1  UNL1        0.0815
     39 C         143.3672  133.8883  157.5489 C.ar    1  UNL1        0.1299
     40 N         142.9517  132.5337  157.0566 N.ar    1  UNL1       -0.1669
     41 N         142.0851  132.7258  155.8474 N.ar    1  UNL1       -0.2467
     42 C         141.4500  131.6359  155.0357 C.3     1  UNL1        0.1538
     43 C         141.9650  134.1991  155.5925 C.ar    1  UNL1        0.1049
@<TRIPOS>BOND
     1    19    18    1
     2    19    20    1
     3    20    21   am
     4    21    22    2
     5    21    24    1
     6    24    25   ar
     7    25    26    1
     8    25    27   ar
     9    27    28   ar
    10    28    29   ar
    11    29    30   ar
    12    30    31   ar
    13    31    32   ar
    14    32    33   ar
    15    19     1    1
    16     1     2   ar
    17     2     3   ar
    18     3     4   ar
    19     4     5   ar
    20     5     6   ar
    21     6     7   ar
    22     7    36    1
    23    36    37    3
    24    37    38    1
    25    38    39   ar
    26    39    40   ar
    27    40    41   ar
    28    41    42    1
    29    41    43   ar
    30     7     8   ar
    31     8     9   ar
    32     9    10    2
    33     9    11   ar
    34    11    12    1
    35    12    13   ar
    36    13    14   ar
    37    14    15   ar
    38    15    16   ar
    39    16    17   ar
    40    33    24   ar
    41    11     1   ar
    42    17    12   ar
    43    33    28   ar
    44     8     3   ar
    45    43    38   ar
    46    20    23    1
    47    26    34    1
    48    26    35    1
@<TRIPOS>MOLECULE
*****
 43 48 0 0 0
SMALL
GASTEIGER

@<TRIPOS>ATOM
      1 C         143.9165  141.6869  159.5382 C.ar    1  UNL1        0.0620
      2 C         144.3828  142.4278  158.3202 C.ar    1  UNL1        0.0150
      3 C         144.5049  141.7117  157.0077 C.ar    1  UNL1        0.0064
      4 C         144.9712  142.4526  155.7897 C.ar    1  UNL1        0.0002
      5 C         145.0932  141.7365  154.4773 C.ar    1  UNL1        0.0006
      6 C         144.7489  140.2796  154.3830 C.ar    1  UNL1        0.0084
      7 C         144.2826  139.5388  155.6010 C.ar    1  UNL1        0.0465
      8 C         144.1606  140.2548  156.9134 C.ar    1  UNL1        0.0642
      9 C         143.6943  139.5139  158.1315 C.ar    1  UNL1        0.2650
     10 O         143.3500  138.0570  158.0371 O.2     1  UNL1       -0.2666
     11 N         143.5723  140.2300  159.4438 N.ar    1  UNL1       -0.2766
     12 C         143.1059  139.4891  160.6620 C.ar    1  UNL1        0.0666
     13 C         141.6782  139.0410  160.7665 C.ar    1  UNL1        0.0176
     14 C         141.2119  138.3002  161.9845 C.ar    1  UNL1        0.0015
     15 C         142.1733  138.0074  163.0980 C.ar    1  UNL1        0.0001
     16 C         143.6010  138.4555  162.9935 C.ar    1  UNL1        0.0015
     17 C         144.0673  139.1963  161.7755 C.ar    1  UNL1        0.0176
     18 C         145.0129  142.9852  161.5034 C.3     1  UNL1        0.0278
     19 C         143.7945  142.4029  160.8506 C.3     1  UNL1        0.1106
     20 N         142.4539  142.5366  161.5102 N.am    1  UNL1       -0.2972
     21 C         141.5759  143.7108  161.1935 C.2     1  UNL1        0.2518
     22 O         142.0385  144.7513  160.2172 O.2     1  UNL1       -0.2699
     23 H         142.1503  141.8536  162.1510 H       1  UNL1        0.1500
     24 C         140.2354  143.8445  161.8530 C.ar    1  UNL1        0.1218
     25 C         139.3271  145.0353  161.7707 C.ar    1  UNL1        0.1529
     26 N         139.5998  146.3017  161.0144 N.pl3   1  UNL1       -0.3411
     27 N         138.0981  144.7376  162.5775 N.ar    1  UNL1       -0.1489
     28 N         138.2468  143.3627  163.1585 N.ar    1  UNL1       -0.2093
     29 C         137.3501  142.5421  164.0374 C.ar    1  UNL1        0.1037
     30 C         137.7744  141.1695  164.4686 C.ar    1  UNL1        0.0414
     31 C         139.0953  140.6175  164.0208 C.ar    1  UNL1        0.1022
     32 N         139.9920  141.4381  163.1419 N.ar    1  UNL1       -0.2247
     33 C         139.5677  142.8108  162.7108 C.ar    1  UNL1        0.1709
     34 H         140.4401  146.4035  160.5116 H       1  UNL1        0.1438
     35 H         138.9385  147.0310  161.0207 H       1  UNL1        0.1438
     36 C         143.9384  138.0819  155.5067 C.1     1  UNL1       -0.0595
     37 C         143.5941  136.6250  155.4123 C.1     1  UNL1       -0.0566
     38 C         143.2498  135.1680  155.3180 C.ar    1  UNL1        0.0815
     39 C         142.5948  134.4906  154.1509 C.ar    1  UNL1        0.1299
     40 N         142.4403  133.0367  154.4858 N.ar    1  UNL1       -0.1669
     41 N         142.9999  132.8155  155.8598 N.ar    1  UNL1       -0.2467
     42 C         143.0503  131.5068  156.5912 C.3     1  UNL1        0.1538
     43 C         143.5002  134.1327  156.3741 C.ar    1  UNL1        0.1049
@<TRIPOS>BOND
     1    19    18    1
     2    19    20    1
     3    20    21   am
     4    21    22    2
     5    21    24    1
     6    24    25   ar
     7    25    26    1
     8    25    27   ar
     9    27    28   ar
    10    28    29   ar
    11    29    30   ar
    12    30    31   ar
    13    31    32   ar
    14    32    33   ar
    15    19     1    1
    16     1     2   ar
    17     2     3   ar
    18     3     4   ar
    19     4     5   ar
    20     5     6   ar
    21     6     7   ar
    22     7    36    1
    23    36    37    3
    24    37    38    1
    25    38    39   ar
    26    39    40   ar
    27    40    41   ar
    28    41    42    1
    29    41    43   ar
    30     7     8   ar
    31     8     9   ar
    32     9    10    2
    33     9    11   ar
    34    11    12    1
    35    12    13   ar
    36    13    14   ar
    37    14    15   ar
    38    15    16   ar
    39    16    17   ar
    40    33    24   ar
    41    11     1   ar
    42    17    12   ar
    43    33    28   ar
    44     8     3   ar
    45    43    38   ar
    46    20    23    1
    47    26    34    1
    48    26    35    1
