@<TRIPOS>MOLECULE
*****
 37 42 0 0 0
SMALL
GASTEIGER

@<TRIPOS>ATOM
      1 C         140.5945  145.1069  158.3895 C.ar    1  UNL1        0.2474
      2 N         141.5800  144.1930  159.0556 N.ar    1  UNL1       -0.2073
      3 C         141.4869  144.4113  160.5367 C.ar    1  UNL1        0.1147
      4 C         142.2172  143.7906  161.6907 C.ar    1  UNL1       -0.0039
      5 C         141.9044  144.2187  163.0937 C.ar    1  UNL1       -0.0231
      6 C         140.8614  145.2675  163.3431 C.ar    1  UNL1       -0.0013
      7 C         140.1311  145.8882  162.1892 C.ar    1  UNL1        0.0388
      8 C         140.4439  145.4602  160.7860 C.ar    1  UNL1        0.1645
      9 O         139.8924  145.8900  159.4590 O.2     1  UNL1       -0.4333
     10 C         142.5098  143.7320  164.3770 C.3     1  UNL1        0.0434
     11 C         143.5776  142.6970  164.5739 C.3     1  UNL1        0.0768
     12 N         144.3035  141.8931  163.5363 N.3     1  UNL1       -0.2720
     13 C         144.1411  141.9256  162.0455 C.3     1  UNL1        0.0769
     14 C         143.2126  142.7701  161.2241 C.3     1  UNL1        0.0450
     15 C         140.8347  146.7283  153.3701 C.3     1  UNL1        0.0540
     16 C         140.4639  145.9634  154.6061 C.ar    1  UNL1        0.0806
     17 C         140.9905  146.2124  155.9883 C.ar    1  UNL1        0.0399
     18 C         140.3535  145.2181  156.9132 C.ar    1  UNL1        0.1325
     19 N         139.4331  144.3546  156.1026 N.ar    1  UNL1       -0.2446
     20 C         138.5921  143.2282  156.6260 C.3     1  UNL1        0.1539
     21 N         139.5012  144.8151  154.6767 N.ar    1  UNL1       -0.1735
     22 C         145.3273  140.9292  164.0586 C.3     1  UNL1        0.0730
     23 C         144.9914  139.4725  164.1827 C.3     1  UNL1        0.0294
     24 C         144.1415  138.9931  165.3220 C.3     1  UNL1        0.0666
     25 S         142.7288  138.5558  165.0715 S.3     1  UNL1       -0.0756
     26 C         141.6716  139.5746  164.7641 C.ar    1  UNL1        0.1933
     27 N         140.9361  140.4123  165.7678 N.ar    1  UNL1       -0.1220
     28 N         139.9743  141.2900  165.0231 N.ar    1  UNL1       -0.1250
     29 C         140.1153  140.9947  163.5592 C.ar    1  UNL1        0.2029
     30 N         141.1644  139.9345  163.3992 N.ar    1  UNL1       -0.2860
     31 C         141.6252  139.3389  162.1019 C.3     1  UNL1        0.1341
     32 C         139.3430  141.6454  162.4502 C.ar    1  UNL1        0.1964
     33 O         139.5198  141.3873  160.9832 O.2     1  UNL1       -0.4283
     34 C         138.5443  142.2508  160.2397 C.ar    1  UNL1        0.2849
     35 N         137.7646  143.0426  161.2472 N.ar    1  UNL1       -0.2085
     36 C         138.2582  142.6685  162.6133 C.ar    1  UNL1        0.1001
     37 C         137.7553  143.2205  163.9143 C.3     1  UNL1        0.0556
@<TRIPOS>BOND
     1    15    16    1
     2    16    17   ar
     3    17    18   ar
     4    18     1    1
     5     1     2   ar
     6     2     3   ar
     7     3     4   ar
     8     4     5   ar
     9     5     6   ar
    10     6     7   ar
    11     7     8   ar
    12     8     9   ar
    13     5    10    1
    14    10    11    1
    15    11    12    1
    16    12    22    1
    17    22    23    1
    18    23    24    1
    19    24    25    1
    20    25    26    1
    21    26    27   ar
    22    27    28   ar
    23    28    29   ar
    24    29    32    1
    25    32    33   ar
    26    33    34   ar
    27    34    35   ar
    28    35    36   ar
    29    36    37    1
    30    29    30   ar
    31    30    31    1
    32    12    13    1
    33    13    14    1
    34    18    19   ar
    35    19    20    1
    36    19    21   ar
    37    21    16   ar
    38     9     1   ar
    39    30    26   ar
    40     8     3   ar
    41    36    32   ar
    42    14     4    1
@<TRIPOS>MOLECULE
*****
 37 42 0 0 0
SMALL
GASTEIGER

@<TRIPOS>ATOM
      1 C         143.7126  140.9406  160.6248 C.ar    1  UNL1        0.2474
      2 N         143.4387  140.2572  161.9317 N.ar    1  UNL1       -0.2073
      3 C         143.5574  141.2794  163.0231 C.ar    1  UNL1        0.1147
      4 C         143.3941  141.1826  164.5111 C.ar    1  UNL1       -0.0039
      5 C         143.5781  142.4009  165.3665 C.ar    1  UNL1       -0.0231
      6 C         143.9254  143.7159  164.7342 C.ar    1  UNL1       -0.0013
      7 C         144.0887  143.8128  163.2462 C.ar    1  UNL1        0.0388
      8 C         143.9047  142.5945  162.3906 C.ar    1  UNL1        0.1645
      9 O         144.0007  142.3851  160.9084 O.2     1  UNL1       -0.4333
     10 C         143.4623  142.5232  166.8571 C.3     1  UNL1        0.0434
     11 C         143.1339  141.4573  167.8602 C.3     1  UNL1        0.0768
     12 N         142.8402  140.0061  167.6205 N.3     1  UNL1       -0.2720
     13 C         142.8023  139.2621  166.3185 C.3     1  UNL1        0.0769
     14 C         143.0488  139.7857  164.9347 C.3     1  UNL1        0.0450
     15 C         144.2716  140.1400  155.4356 C.3     1  UNL1        0.0540
     16 C         143.9576  139.9252  156.8866 C.ar    1  UNL1        0.0806
     17 C         144.1391  140.9293  157.9861 C.ar    1  UNL1        0.0399
     18 C         143.7007  140.2931  159.2718 C.ar    1  UNL1        0.1325
     19 N         143.2483  138.8959  158.9670 N.ar    1  UNL1       -0.2446
     20 C         142.7283  137.9007  159.9616 C.3     1  UNL1        0.1539
     21 N         143.4070  138.6684  157.4928 N.ar    1  UNL1       -0.1735
     22 C         142.5454  139.1909  168.8447 C.3     1  UNL1        0.0730
     23 C         141.8985  139.8334  170.0358 C.3     1  UNL1        0.0294
     24 C         140.4059  139.8090  170.1830 C.3     1  UNL1        0.0666
     25 S         139.5490  140.6396  169.2743 S.3     1  UNL1       -0.0756
     26 C         138.9435  140.0262  168.0466 C.ar    1  UNL1        0.1933
     27 N         138.0407  138.8288  168.0129 N.ar    1  UNL1       -0.1220
     28 N         137.6737  138.5652  166.5826 N.ar    1  UNL1       -0.1250
     29 C         138.3496  139.5997  165.7324 C.ar    1  UNL1        0.2029
     30 N         139.1344  140.5027  166.6372 N.ar    1  UNL1       -0.2860
     31 C         139.9644  141.6761  166.2079 C.3     1  UNL1        0.1341
     32 C         138.2571  139.7115  164.2394 C.ar    1  UNL1        0.1964
     33 O         137.5674  140.8046  163.4782 O.2     1  UNL1       -0.4283
     34 C         137.7220  140.5186  162.0139 C.ar    1  UNL1        0.2849
     35 N         138.5073  139.2488  161.8700 N.ar    1  UNL1       -0.2085
     36 C         138.8380  138.7499  163.2455 C.ar    1  UNL1        0.1001
     37 C         139.6136  137.5076  163.5700 C.3     1  UNL1        0.0556
@<TRIPOS>BOND
     1    15    16    1
     2    16    17   ar
     3    17    18   ar
     4    18     1    1
     5     1     2   ar
     6     2     3   ar
     7     3     4   ar
     8     4     5   ar
     9     5     6   ar
    10     6     7   ar
    11     7     8   ar
    12     8     9   ar
    13     5    10    1
    14    10    11    1
    15    11    12    1
    16    12    22    1
    17    22    23    1
    18    23    24    1
    19    24    25    1
    20    25    26    1
    21    26    27   ar
    22    27    28   ar
    23    28    29   ar
    24    29    32    1
    25    32    33   ar
    26    33    34   ar
    27    34    35   ar
    28    35    36   ar
    29    36    37    1
    30    29    30   ar
    31    30    31    1
    32    12    13    1
    33    13    14    1
    34    18    19   ar
    35    19    20    1
    36    19    21   ar
    37    21    16   ar
    38     9     1   ar
    39    30    26   ar
    40     8     3   ar
    41    36    32   ar
    42    14     4    1
@<TRIPOS>MOLECULE
*****
 37 42 0 0 0
SMALL
GASTEIGER

@<TRIPOS>ATOM
      1 C         138.0387  140.7156  158.5053 C.ar    1  UNL1        0.2474
      2 N         139.4175  140.6697  159.0942 N.ar    1  UNL1       -0.2073
      3 C         139.3677  139.8131  160.3245 C.ar    1  UNL1        0.1147
      4 C         140.4238  139.4108  161.3109 C.ar    1  UNL1       -0.0039
      5 C         140.0703  138.5251  162.4686 C.ar    1  UNL1       -0.0231
      6 C         138.6609  138.0416  162.6401 C.ar    1  UNL1       -0.0013
      7 C         137.6047  138.4438  161.6538 C.ar    1  UNL1        0.0388
      8 C         137.9581  139.3296  160.4960 C.ar    1  UNL1        0.1645
      9 O         137.1368  139.8874  159.3716 O.2     1  UNL1       -0.4333
     10 C         140.9629  138.0095  163.5584 C.3     1  UNL1        0.0434
     11 C         142.4295  138.2524  163.7594 C.3     1  UNL1        0.0768
     12 N         143.3655  139.0708  162.9204 N.3     1  UNL1       -0.2720
     13 C         143.0663  139.8485  161.6731 C.3     1  UNL1        0.0769
     14 C         141.7571  139.9998  160.9568 C.3     1  UNL1        0.0450
     15 C         135.6083  142.0277  154.0050 C.3     1  UNL1        0.0540
     16 C         136.5158  142.0623  155.1988 C.ar    1  UNL1        0.0806
     17 C         136.5971  141.0207  156.2751 C.ar    1  UNL1        0.0399
     18 C         137.6330  141.4593  157.2673 C.ar    1  UNL1        0.1325
     19 N         138.1919  142.7719  156.8044 N.ar    1  UNL1       -0.2446
     20 C         139.2546  143.5715  157.4980 C.3     1  UNL1        0.1539
     21 N         137.5015  143.1447  155.5260 N.ar    1  UNL1       -0.1735
     22 C         144.7890  139.1178  163.3909 C.3     1  UNL1        0.0730
     23 C         145.2309  140.1938  164.3381 C.3     1  UNL1        0.0294
     24 C         145.6897  141.5192  163.8062 C.3     1  UNL1        0.0666
     25 S         144.9982  142.7793  164.2348 S.3     1  UNL1       -0.0756
     26 C         143.8594  143.3229  163.4238 C.ar    1  UNL1        0.1933
     27 N         143.9642  144.3453  162.3312 N.ar    1  UNL1       -0.1220
     28 N         142.5855  144.5938  161.7951 N.ar    1  UNL1       -0.1250
     29 C         141.6286  143.7251  162.5565 C.ar    1  UNL1        0.2029
     30 N         142.4159  142.9396  163.5631 N.ar    1  UNL1       -0.2860
     31 C         141.8577  141.9454  164.5377 C.3     1  UNL1        0.1341
     32 C         140.1449  143.6542  162.3479 C.ar    1  UNL1        0.1964
     33 O         139.4490  143.0599  161.1594 O.2     1  UNL1       -0.4283
     34 C         137.9705  143.2036  161.3682 C.ar    1  UNL1        0.2849
     35 N         137.7526  143.8868  162.6857 N.ar    1  UNL1       -0.2085
     36 C         139.0965  144.1653  163.2912 C.ar    1  UNL1        0.1001
     37 C         139.3478  144.8369  164.6087 C.3     1  UNL1        0.0556
@<TRIPOS>BOND
     1    15    16    1
     2    16    17   ar
     3    17    18   ar
     4    18     1    1
     5     1     2   ar
     6     2     3   ar
     7     3     4   ar
     8     4     5   ar
     9     5     6   ar
    10     6     7   ar
    11     7     8   ar
    12     8     9   ar
    13     5    10    1
    14    10    11    1
    15    11    12    1
    16    12    22    1
    17    22    23    1
    18    23    24    1
    19    24    25    1
    20    25    26    1
    21    26    27   ar
    22    27    28   ar
    23    28    29   ar
    24    29    32    1
    25    32    33   ar
    26    33    34   ar
    27    34    35   ar
    28    35    36   ar
    29    36    37    1
    30    29    30   ar
    31    30    31    1
    32    12    13    1
    33    13    14    1
    34    18    19   ar
    35    19    20    1
    36    19    21   ar
    37    21    16   ar
    38     9     1   ar
    39    30    26   ar
    40     8     3   ar
    41    36    32   ar
    42    14     4    1
@<TRIPOS>MOLECULE
*****
 37 42 0 0 0
SMALL
GASTEIGER

@<TRIPOS>ATOM
      1 C         141.0278  142.4408  166.7139 C.ar    1  UNL1        0.2474
      2 N         141.7551  142.3436  165.4056 N.ar    1  UNL1       -0.2073
      3 C         141.0597  143.2365  164.4213 C.ar    1  UNL1        0.1147
      4 C         141.3306  143.5425  162.9779 C.ar    1  UNL1       -0.0039
      5 C         140.4445  144.4975  162.2346 C.ar    1  UNL1       -0.0231
      6 C         139.2874  145.1466  162.9344 C.ar    1  UNL1       -0.0013
      7 C         139.0164  144.8407  164.3777 C.ar    1  UNL1        0.0388
      8 C         139.9026  143.8857  165.1211 C.ar    1  UNL1        0.1645
      9 O         139.8829  143.3939  166.5381 O.2     1  UNL1       -0.4333
     10 C         140.5365  144.9380  160.8037 C.3     1  UNL1        0.0434
     11 C         141.5375  144.5323  159.7628 C.3     1  UNL1        0.0768
     12 N         142.6936  143.5859  159.8957 N.3     1  UNL1       -0.2720
     13 C         143.1343  142.8114  161.1023 C.3     1  UNL1        0.0769
     14 C         142.5277  142.7921  162.4741 C.3     1  UNL1        0.0450
     15 C         142.6816  138.7087  170.0631 C.3     1  UNL1        0.0540
     16 C         142.1432  139.9973  169.5158 C.ar    1  UNL1        0.0806
     17 C         141.9373  140.3219  168.0659 C.ar    1  UNL1        0.0399
     18 C         141.3830  141.7128  167.9764 C.ar    1  UNL1        0.1325
     19 N         141.2463  142.2479  169.3710 N.ar    1  UNL1       -0.2446
     20 C         140.7304  143.6050  169.7480 C.3     1  UNL1        0.1539
     21 N         141.7161  141.1878  170.3225 N.ar    1  UNL1       -0.1735
     22 C         143.5180  143.3878  158.6584 C.3     1  UNL1        0.0730
     23 C         144.5992  142.3482  158.6360 C.3     1  UNL1        0.0294
     24 C         144.3718  141.0446  157.9296 C.3     1  UNL1        0.0666
     25 S         143.1093  140.2715  158.1703 S.3     1  UNL1       -0.0756
     26 C         142.9409  139.4856  159.4368 C.ar    1  UNL1        0.1933
     27 N         143.9400  138.5319  160.0220 N.ar    1  UNL1       -0.1220
     28 N         143.3606  137.9723  161.2873 N.ar    1  UNL1       -0.1250
     29 C         142.0034  138.5801  161.4841 C.ar    1  UNL1        0.2029
     30 N         141.7440  139.5153  160.3404 N.ar    1  UNL1       -0.2860
     31 C         140.5053  140.3362  160.1362 C.3     1  UNL1        0.1341
     32 C         141.0695  138.3015  162.6244 C.ar    1  UNL1        0.1964
     33 O         139.6558  137.8142  162.5073 O.2     1  UNL1       -0.4283
     34 C         139.0979  137.6728  163.8926 C.ar    1  UNL1        0.2849
     35 N         140.1669  138.0728  164.8658 N.ar    1  UNL1       -0.2085
     36 C         141.3855  138.4614  164.0820 C.ar    1  UNL1        0.1001
     37 C         142.6908  138.9278  164.6553 C.3     1  UNL1        0.0556
@<TRIPOS>BOND
     1    15    16    1
     2    16    17   ar
     3    17    18   ar
     4    18     1    1
     5     1     2   ar
     6     2     3   ar
     7     3     4   ar
     8     4     5   ar
     9     5     6   ar
    10     6     7   ar
    11     7     8   ar
    12     8     9   ar
    13     5    10    1
    14    10    11    1
    15    11    12    1
    16    12    22    1
    17    22    23    1
    18    23    24    1
    19    24    25    1
    20    25    26    1
    21    26    27   ar
    22    27    28   ar
    23    28    29   ar
    24    29    32    1
    25    32    33   ar
    26    33    34   ar
    27    34    35   ar
    28    35    36   ar
    29    36    37    1
    30    29    30   ar
    31    30    31    1
    32    12    13    1
    33    13    14    1
    34    18    19   ar
    35    19    20    1
    36    19    21   ar
    37    21    16   ar
    38     9     1   ar
    39    30    26   ar
    40     8     3   ar
    41    36    32   ar
    42    14     4    1
@<TRIPOS>MOLECULE
*****
 37 42 0 0 0
SMALL
GASTEIGER

@<TRIPOS>ATOM
      1 C         140.3190  144.7013  159.4173 C.ar    1  UNL1        0.2474
      2 N         139.7302  143.5623  160.1958 N.ar    1  UNL1       -0.2073
      3 C         140.1010  143.7456  161.6376 C.ar    1  UNL1        0.1147
      4 C         139.7996  142.9340  162.8626 C.ar    1  UNL1       -0.0039
      5 C         140.3161  143.3747  164.2000 C.ar    1  UNL1       -0.0231
      6 C         141.1341  144.6269  164.3127 C.ar    1  UNL1       -0.0013
      7 C         141.4356  145.4386  163.0878 C.ar    1  UNL1        0.0388
      8 C         140.9191  144.9979  161.7502 C.ar    1  UNL1        0.1645
      9 O         141.0537  145.5885  160.3780 O.2     1  UNL1       -0.4333
     10 C         140.1329  142.7179  165.5361 C.3     1  UNL1        0.0434
     11 C         139.3877  141.4580  165.8645 C.3     1  UNL1        0.0768
     12 N         138.6420  140.5441  164.9381 N.3     1  UNL1       -0.2720
     13 C         138.4570  140.6640  163.4544 C.3     1  UNL1        0.0769
     14 C         138.9722  141.7276  162.5307 C.3     1  UNL1        0.0450
     15 C         139.7678  147.0259  154.7084 C.3     1  UNL1        0.0540
     16 C         139.9415  145.9840  155.7735 C.ar    1  UNL1        0.0806
     17 C         140.0211  146.2370  157.2498 C.ar    1  UNL1        0.0399
     18 C         140.1948  144.9154  157.9378 C.ar    1  UNL1        0.1325
     19 N         140.2226  143.8457  156.8868 N.ar    1  UNL1       -0.2446
     20 C         140.3794  142.3740  157.1305 C.3     1  UNL1        0.1539
     21 N         140.0660  144.5061  155.5491 N.ar    1  UNL1       -0.1735
     22 C         137.9956  139.3525  165.5803 C.3     1  UNL1        0.0730
     23 C         138.7777  138.0867  165.7708 C.3     1  UNL1        0.0294
     24 C         139.4334  137.4259  164.5946 C.3     1  UNL1        0.0666
     25 S         140.9295  137.3775  164.4995 S.3     1  UNL1       -0.0756
     26 C         141.7220  138.6510  164.4876 C.ar    1  UNL1        0.1933
     27 N         142.3470  139.3117  165.6804 N.ar    1  UNL1       -0.1220
     28 N         143.0398  140.5565  165.2108 N.ar    1  UNL1       -0.1250
     29 C         142.8429  140.6652  163.7277 C.ar    1  UNL1        0.2029
     30 N         142.0284  139.4875  163.2807 N.ar    1  UNL1       -0.2860
     31 C         141.5963  139.1973  161.8739 C.3     1  UNL1        0.1341
     32 C         143.3683  141.7593  162.8464 C.ar    1  UNL1        0.1964
     33 O         143.1859  141.8590  161.3609 O.2     1  UNL1       -0.4283
     34 C         143.8732  143.1073  160.8922 C.ar    1  UNL1        0.2849
     35 N         144.4803  143.7791  162.0881 N.ar    1  UNL1       -0.2085
     36 C         144.1682  142.9460  163.2959 C.ar    1  UNL1        0.1001
     37 C         144.5833  143.2468  164.7056 C.3     1  UNL1        0.0556
@<TRIPOS>BOND
     1    15    16    1
     2    16    17   ar
     3    17    18   ar
     4    18     1    1
     5     1     2   ar
     6     2     3   ar
     7     3     4   ar
     8     4     5   ar
     9     5     6   ar
    10     6     7   ar
    11     7     8   ar
    12     8     9   ar
    13     5    10    1
    14    10    11    1
    15    11    12    1
    16    12    22    1
    17    22    23    1
    18    23    24    1
    19    24    25    1
    20    25    26    1
    21    26    27   ar
    22    27    28   ar
    23    28    29   ar
    24    29    32    1
    25    32    33   ar
    26    33    34   ar
    27    34    35   ar
    28    35    36   ar
    29    36    37    1
    30    29    30   ar
    31    30    31    1
    32    12    13    1
    33    13    14    1
    34    18    19   ar
    35    19    20    1
    36    19    21   ar
    37    21    16   ar
    38     9     1   ar
    39    30    26   ar
    40     8     3   ar
    41    36    32   ar
    42    14     4    1
@<TRIPOS>MOLECULE
*****
 37 42 0 0 0
SMALL
GASTEIGER

@<TRIPOS>ATOM
      1 C         140.6679  140.3728  166.3884 C.ar    1  UNL1        0.2474
      2 N         140.4902  141.1634  165.1261 N.ar    1  UNL1       -0.2073
      3 C         139.8352  140.2746  164.1108 C.ar    1  UNL1        0.1147
      4 C         139.4162  140.5123  162.6901 C.ar    1  UNL1       -0.0039
      5 C         138.7702  139.4100  161.9044 C.ar    1  UNL1       -0.0231
      6 C         138.5431  138.0700  162.5391 C.ar    1  UNL1       -0.0013
      7 C         138.9621  137.8323  163.9596 C.ar    1  UNL1        0.0388
      8 C         139.6082  138.9346  164.7455 C.ar    1  UNL1        0.1645
      9 O         140.1228  138.9953  166.1531 O.2     1  UNL1       -0.4333
     10 C         138.2808  139.4348  160.4867 C.3     1  UNL1        0.0434
     11 C         138.3165  140.5682  159.5046 C.3     1  UNL1        0.0768
     12 N         138.8505  141.9564  159.6978 N.3     1  UNL1       -0.2720
     13 C         139.4806  142.5544  160.9207 C.3     1  UNL1        0.0769
     14 C         139.7324  141.9117  162.2524 C.3     1  UNL1        0.0450
     15 C         144.0583  142.5037  169.8300 C.3     1  UNL1        0.0540
     16 C         142.8412  141.8515  169.2442 C.ar    1  UNL1        0.0806
     17 C         142.6347  141.5073  167.7989 C.ar    1  UNL1        0.0399
     18 C         141.2828  140.8720  167.6623 C.ar    1  UNL1        0.1325
     19 N         140.6538  140.8235  169.0230 N.ar    1  UNL1       -0.2446
     20 C         139.2994  140.2673  169.3490 C.3     1  UNL1        0.1539
     21 N         141.6169  141.4288  170.0008 N.ar    1  UNL1       -0.1735
     22 C         138.7397  142.8673  158.5112 C.3     1  UNL1        0.0730
     23 C         139.8796  143.7741  158.1526 C.3     1  UNL1        0.0294
     24 C         141.1125  143.2109  157.5100 C.3     1  UNL1        0.0666
     25 S         142.4623  143.4975  158.0979 S.3     1  UNL1       -0.0756
     26 C         142.7431  143.1590  159.5319 C.ar    1  UNL1        0.1933
     27 N         142.7785  144.1284  160.6760 N.ar    1  UNL1       -0.1220
     28 N         143.0951  143.3602  161.9249 N.ar    1  UNL1       -0.1250
     29 C         143.2552  141.9160  161.5526 C.ar    1  UNL1        0.2029
     30 N         143.0377  141.7916  160.0736 N.ar    1  UNL1       -0.2860
     31 C         143.1033  140.5226  159.2765 C.3     1  UNL1        0.1341
     32 C         143.5765  140.7932  162.4940 C.ar    1  UNL1        0.1964
     33 O         142.7588  139.5525  162.6982 O.2     1  UNL1       -0.4283
     34 C         143.4488  138.7065  163.7268 C.ar    1  UNL1        0.2849
     35 N         144.6931  139.4244  164.1584 N.ar    1  UNL1       -0.2085
     36 C         144.7720  140.7141  163.3965 C.ar    1  UNL1        0.1001
     37 C         145.8562  141.7439  163.5161 C.3     1  UNL1        0.0556
@<TRIPOS>BOND
     1    15    16    1
     2    16    17   ar
     3    17    18   ar
     4    18     1    1
     5     1     2   ar
     6     2     3   ar
     7     3     4   ar
     8     4     5   ar
     9     5     6   ar
    10     6     7   ar
    11     7     8   ar
    12     8     9   ar
    13     5    10    1
    14    10    11    1
    15    11    12    1
    16    12    22    1
    17    22    23    1
    18    23    24    1
    19    24    25    1
    20    25    26    1
    21    26    27   ar
    22    27    28   ar
    23    28    29   ar
    24    29    32    1
    25    32    33   ar
    26    33    34   ar
    27    34    35   ar
    28    35    36   ar
    29    36    37    1
    30    29    30   ar
    31    30    31    1
    32    12    13    1
    33    13    14    1
    34    18    19   ar
    35    19    20    1
    36    19    21   ar
    37    21    16   ar
    38     9     1   ar
    39    30    26   ar
    40     8     3   ar
    41    36    32   ar
    42    14     4    1
@<TRIPOS>MOLECULE
*****
 37 42 0 0 0
SMALL
GASTEIGER

@<TRIPOS>ATOM
      1 C         141.0387  140.2129  166.5791 C.ar    1  UNL1        0.2474
      2 N         141.4491  140.5282  165.1712 N.ar    1  UNL1       -0.2073
      3 C         140.6506  139.6554  164.2491 C.ar    1  UNL1        0.1147
      4 C         140.6297  139.5284  162.7546 C.ar    1  UNL1       -0.0039
      5 C         139.7050  138.5467  162.0982 C.ar    1  UNL1       -0.0231
      6 C         138.8009  137.6920  162.9360 C.ar    1  UNL1       -0.0013
      7 C         138.8217  137.8189  164.4306 C.ar    1  UNL1        0.0388
      8 C         139.7465  138.8006  165.0871 C.ar    1  UNL1        0.1645
      9 O         139.9864  139.1452  166.5271 O.2     1  UNL1       -0.4333
     10 C         139.5270  138.2632  160.6359 C.3     1  UNL1        0.0434
     11 C         140.2299  138.8913  159.4691 C.3     1  UNL1        0.0768
     12 N         141.2843  139.9580  159.4764 N.3     1  UNL1       -0.2720
     13 C         141.8964  140.6602  160.6522 C.3     1  UNL1        0.0769
     14 C         141.6050  140.4690  162.1111 C.3     1  UNL1        0.0450
     15 C         144.2718  142.6565  169.9640 C.3     1  UNL1        0.0540
     16 C         143.0707  141.9761  169.3769 C.ar    1  UNL1        0.0806
     17 C         142.9507  141.4528  167.9762 C.ar    1  UNL1        0.0399
     18 C         141.5846  140.8530  167.8210 C.ar    1  UNL1        0.1325
     19 N         140.8604  141.0055  169.1257 N.ar    1  UNL1       -0.2446
     20 C         139.4631  140.5448  169.4176 C.3     1  UNL1        0.1539
     21 N         141.7788  141.6997  170.0873 N.ar    1  UNL1       -0.1735
     22 C         141.7943  140.3783  158.1298 C.3     1  UNL1        0.0730
     23 C         142.8310  141.4572  158.0235 C.3     1  UNL1        0.0294
     24 C         142.4660  142.7942  157.4496 C.3     1  UNL1        0.0666
     25 S         142.0170  143.9019  158.3557 S.3     1  UNL1       -0.0756
     26 C         140.8249  143.7068  159.2450 C.ar    1  UNL1        0.1933
     27 N         139.4763  143.2102  158.8154 N.ar    1  UNL1       -0.1220
     28 N         138.5899  143.1705  160.0249 N.ar    1  UNL1       -0.1250
     29 C         139.3909  143.6426  161.2021 C.ar    1  UNL1        0.2029
     30 N         140.7721  143.9740  160.7201 N.ar    1  UNL1       -0.2860
     31 C         141.9022  144.4833  161.5649 C.3     1  UNL1        0.1341
     32 C         138.8972  143.7622  162.6134 C.ar    1  UNL1        0.1964
     33 O         139.1796  144.8967  163.5531 O.2     1  UNL1       -0.4283
     34 C         138.4914  144.6040  164.8534 C.ar    1  UNL1        0.2849
     35 N         137.7835  143.2885  164.7173 N.ar    1  UNL1       -0.2085
     36 C         138.0343  142.7683  163.3329 C.ar    1  UNL1        0.1001
     37 C         137.5136  141.4802  162.7673 C.3     1  UNL1        0.0556
@<TRIPOS>BOND
     1    15    16    1
     2    16    17   ar
     3    17    18   ar
     4    18     1    1
     5     1     2   ar
     6     2     3   ar
     7     3     4   ar
     8     4     5   ar
     9     5     6   ar
    10     6     7   ar
    11     7     8   ar
    12     8     9   ar
    13     5    10    1
    14    10    11    1
    15    11    12    1
    16    12    22    1
    17    22    23    1
    18    23    24    1
    19    24    25    1
    20    25    26    1
    21    26    27   ar
    22    27    28   ar
    23    28    29   ar
    24    29    32    1
    25    32    33   ar
    26    33    34   ar
    27    34    35   ar
    28    35    36   ar
    29    36    37    1
    30    29    30   ar
    31    30    31    1
    32    12    13    1
    33    13    14    1
    34    18    19   ar
    35    19    20    1
    36    19    21   ar
    37    21    16   ar
    38     9     1   ar
    39    30    26   ar
    40     8     3   ar
    41    36    32   ar
    42    14     4    1
@<TRIPOS>MOLECULE
*****
 37 42 0 0 0
SMALL
GASTEIGER

@<TRIPOS>ATOM
      1 C         140.5847  141.5719  167.1748 C.ar    1  UNL1        0.2474
      2 N         140.3120  140.9287  165.8474 N.ar    1  UNL1       -0.2073
      3 C         139.8239  141.9919  164.9087 C.ar    1  UNL1        0.1147
      4 C         139.4021  141.9441  163.4700 C.ar    1  UNL1       -0.0039
      5 C         138.9513  143.1965  162.7786 C.ar    1  UNL1       -0.0231
      6 C         138.9224  144.4968  163.5257 C.ar    1  UNL1       -0.0013
      7 C         139.3442  144.5448  164.9644 C.ar    1  UNL1        0.0388
      8 C         139.7950  143.2923  165.6559 C.ar    1  UNL1        0.1645
      9 O         140.2652  143.0327  167.0564 O.2     1  UNL1       -0.4333
     10 C         138.4929  143.3689  161.3608 C.3     1  UNL1        0.0434
     11 C         138.3720  142.3312  160.2842 C.3     1  UNL1        0.0768
     12 N         138.6798  140.8652  160.3597 N.3     1  UNL1       -0.2720
     13 C         139.1843  140.0744  161.5303 C.3     1  UNL1        0.0769
     14 C         139.5058  140.5546  162.9145 C.3     1  UNL1        0.0450
     15 C         143.0323  138.1431  170.3581 C.3     1  UNL1        0.0540
     16 C         142.2136  139.3004  169.8679 C.ar    1  UNL1        0.0806
     17 C         141.9506  139.6492  168.4329 C.ar    1  UNL1        0.0399
     18 C         141.0885  140.8764  168.4047 C.ar    1  UNL1        0.1325
     19 N         140.8188  141.2861  169.8222 N.ar    1  UNL1       -0.2446
     20 C         139.9978  142.4631  170.2588 C.3     1  UNL1        0.1539
     21 N         141.5140  140.3121  170.7265 N.ar    1  UNL1       -0.1735
     22 C         138.4529  140.0868  159.0977 C.3     1  UNL1        0.0730
     23 C         139.6141  139.7297  158.2177 C.3     1  UNL1        0.0294
     24 C         140.4190  140.8123  157.5619 C.3     1  UNL1        0.0666
     25 S         141.9040  140.6593  157.4166 S.3     1  UNL1       -0.0756
     26 C         142.7295  140.2089  158.5853 C.ar    1  UNL1        0.1933
     27 N         143.4072  138.8780  158.7254 N.ar    1  UNL1       -0.1220
     28 N         144.1187  138.8569  160.0457 N.ar    1  UNL1       -0.1250
     29 C         143.8808  140.1746  160.7216 C.ar    1  UNL1        0.2029
     30 N         143.0222  141.0103  159.8190 N.ar    1  UNL1       -0.2860
     31 C         142.5409  142.4027  160.1008 C.3     1  UNL1        0.1341
     32 C         144.4088  140.5848  162.0644 C.ar    1  UNL1        0.1964
     33 O         145.5053  141.5771  162.3150 O.2     1  UNL1       -0.4283
     34 C         145.7072  141.6803  163.7978 C.ar    1  UNL1        0.2849
     35 N         144.7353  140.7518  164.4636 N.ar    1  UNL1       -0.2085
     36 C         143.9329  140.0747  163.3923 C.ar    1  UNL1        0.1001
     37 C         142.8454  139.0648  163.6106 C.3     1  UNL1        0.0556
@<TRIPOS>BOND
     1    15    16    1
     2    16    17   ar
     3    17    18   ar
     4    18     1    1
     5     1     2   ar
     6     2     3   ar
     7     3     4   ar
     8     4     5   ar
     9     5     6   ar
    10     6     7   ar
    11     7     8   ar
    12     8     9   ar
    13     5    10    1
    14    10    11    1
    15    11    12    1
    16    12    22    1
    17    22    23    1
    18    23    24    1
    19    24    25    1
    20    25    26    1
    21    26    27   ar
    22    27    28   ar
    23    28    29   ar
    24    29    32    1
    25    32    33   ar
    26    33    34   ar
    27    34    35   ar
    28    35    36   ar
    29    36    37    1
    30    29    30   ar
    31    30    31    1
    32    12    13    1
    33    13    14    1
    34    18    19   ar
    35    19    20    1
    36    19    21   ar
    37    21    16   ar
    38     9     1   ar
    39    30    26   ar
    40     8     3   ar
    41    36    32   ar
    42    14     4    1
@<TRIPOS>MOLECULE
*****
 37 42 0 0 0
SMALL
GASTEIGER

@<TRIPOS>ATOM
      1 C         140.5501  145.3499  158.4811 C.ar    1  UNL1        0.2474
      2 N         141.4874  144.3975  159.1627 N.ar    1  UNL1       -0.2073
      3 C         141.2506  144.4921  160.6408 C.ar    1  UNL1        0.1147
      4 C         141.8816  143.7884  161.8055 C.ar    1  UNL1       -0.0039
      5 C         141.4290  144.0955  163.2021 C.ar    1  UNL1       -0.0231
      6 C         140.3453  145.1063  163.4342 C.ar    1  UNL1       -0.0013
      7 C         139.7142  145.8100  162.2696 C.ar    1  UNL1        0.0388
      8 C         140.1668  145.5030  160.8728 C.ar    1  UNL1        0.1645
      9 O         139.7339  146.0331  159.5381 O.2     1  UNL1       -0.4333
     10 C         141.9209  143.5131  164.4941 C.3     1  UNL1        0.0434
     11 C         142.9869  142.4796  164.7082 C.3     1  UNL1        0.0768
     12 N         143.8241  141.7735  163.6834 N.3     1  UNL1       -0.2720
     13 C         143.8024  141.9263  162.1914 C.3     1  UNL1        0.0769
     14 C         142.9379  142.8230  161.3556 C.3     1  UNL1        0.0450
     15 C         141.0705  144.7599  153.2598 C.3     1  UNL1        0.0540
     16 C         140.6862  145.3077  154.6023 C.ar    1  UNL1        0.0806
     17 C         141.0301  144.7046  155.9320 C.ar    1  UNL1        0.0399
     18 C         140.4470  145.5789  157.0023 C.ar    1  UNL1        0.1325
     19 N         139.7429  146.7224  156.3341 N.ar    1  UNL1       -0.2446
     20 C         139.0182  147.8378  157.0275 C.3     1  UNL1        0.1539
     21 N         139.8907  146.5549  154.8509 N.ar    1  UNL1       -0.1735
     22 C         144.8142  140.7836  164.2219 C.3     1  UNL1        0.0730
     23 C         144.4768  139.3222  164.2452 C.3     1  UNL1        0.0294
     24 C         143.0885  138.8674  163.9049 C.3     1  UNL1        0.0666
     25 S         142.1642  138.4027  164.9909 S.3     1  UNL1       -0.0756
     26 C         141.2716  139.3863  165.6880 C.ar    1  UNL1        0.1933
     27 N         139.9364  139.8649  165.2001 N.ar    1  UNL1       -0.1220
     28 N         139.3970  140.8384  166.2058 N.ar    1  UNL1       -0.1250
     29 C         140.3990  140.9613  167.3154 C.ar    1  UNL1        0.2029
     30 N         141.5575  140.0639  166.9953 N.ar    1  UNL1       -0.2860
     31 C         142.7862  139.8769  167.8352 C.3     1  UNL1        0.1341
     32 C         140.2658  141.8293  168.5314 C.ar    1  UNL1        0.1964
     33 O         140.8461  143.2018  168.7029 O.2     1  UNL1       -0.4283
     34 C         140.4678  143.6980  170.0670 C.ar    1  UNL1        0.2849
     35 N         139.6537  142.6321  170.7386 N.ar    1  UNL1       -0.2085
     36 C         139.5288  141.4772  169.7896 C.ar    1  UNL1        0.1001
     37 C         138.7957  140.1952  170.0526 C.3     1  UNL1        0.0556
@<TRIPOS>BOND
     1    15    16    1
     2    16    17   ar
     3    17    18   ar
     4    18     1    1
     5     1     2   ar
     6     2     3   ar
     7     3     4   ar
     8     4     5   ar
     9     5     6   ar
    10     6     7   ar
    11     7     8   ar
    12     8     9   ar
    13     5    10    1
    14    10    11    1
    15    11    12    1
    16    12    22    1
    17    22    23    1
    18    23    24    1
    19    24    25    1
    20    25    26    1
    21    26    27   ar
    22    27    28   ar
    23    28    29   ar
    24    29    32    1
    25    32    33   ar
    26    33    34   ar
    27    34    35   ar
    28    35    36   ar
    29    36    37    1
    30    29    30   ar
    31    30    31    1
    32    12    13    1
    33    13    14    1
    34    18    19   ar
    35    19    20    1
    36    19    21   ar
    37    21    16   ar
    38     9     1   ar
    39    30    26   ar
    40     8     3   ar
    41    36    32   ar
    42    14     4    1
