@<TRIPOS>MOLECULE
*****
 28 31 0 0 0
SMALL
GASTEIGER

@<TRIPOS>ATOM
      1 C         141.9556  143.6258  163.8948 C.3     1  UNL1        0.0252
      2 C         143.3528  143.1814  164.2119 C.3     1  UNL1        0.0217
      3 C         143.6760  142.6360  165.5713 C.3     1  UNL1        0.0724
      4 N         142.6019  142.5348  166.6136 N.3     1  UNL1       -0.2726
      5 C         141.2048  142.9792  166.2965 C.3     1  UNL1        0.0724
      6 C         140.8817  143.5247  164.9371 C.3     1  UNL1        0.0217
      7 C         140.9862  145.2622  159.8165 C.ar    1  UNL1        0.1724
      8 C         140.1534  145.6563  161.0002 C.ar    1  UNL1        0.0397
      9 C         140.4765  145.1108  162.3596 C.ar    1  UNL1       -0.0010
     10 C         141.6325  144.1713  162.5354 C.ar    1  UNL1       -0.0192
     11 C         142.4654  143.7771  161.3517 C.ar    1  UNL1        0.0358
     12 C         142.1422  144.3226  159.9923 C.ar    1  UNL1        0.1721
     13 C         139.9723  144.9413  157.4461 C.3     1  UNL1        0.2526
     14 O         140.6630  145.8077  158.4571 O.3     1  UNL1       -0.4684
     15 O         142.9750  143.9285  158.8086 O.3     1  UNL1       -0.4684
     16 C         143.6208  142.5755  158.7631 C.3     1  UNL1        0.2526
     17 C         142.9251  141.9894  167.9731 C.3     1  UNL1        0.0724
     18 C         142.5222  140.5906  168.3351 C.3     1  UNL1        0.0219
     19 C         141.0768  140.2621  168.5650 C.3     1  UNL1        0.0304
     20 C         140.4474  140.5396  169.8979 C.3     1  UNL1        0.0518
     21 C         139.0019  140.2111  170.1277 C.3     1  UNL1        0.2057
     22 O         138.1859  139.6051  169.0246 O.3     1  UNL1       -0.4758
     23 C         138.8154  139.3276  167.6916 C.ar    1  UNL1        0.1345
     24 C         137.9994  138.7216  166.5885 C.ar    1  UNL1        0.0366
     25 C         138.6288  138.4440  165.2556 C.ar    1  UNL1        0.0031
     26 C         140.0742  138.7725  165.0258 C.ar    1  UNL1       -0.0001
     27 C         140.8902  139.3785  166.1289 C.ar    1  UNL1       -0.0013
     28 C         140.2608  139.6561  167.4618 C.ar    1  UNL1        0.0116
@<TRIPOS>BOND
     1    13    14    1
     2    14     7    1
     3     7     8   ar
     4     8     9   ar
     5     9    10   ar
     6    10     1    1
     7     1     2    1
     8     2     3    1
     9     3     4    1
    10     4    17    1
    11    17    18    1
    12    19    18    1
    13    19    20    1
    14    20    21    1
    15    21    22    1
    16    22    23    1
    17    23    24   ar
    18    24    25   ar
    19    25    26   ar
    20    26    27   ar
    21    27    28   ar
    22     4     5    1
    23     5     6    1
    24    10    11   ar
    25    11    12   ar
    26    12    15    1
    27    15    16    1
    28    12     7   ar
    29     6     1    1
    30    28    19    1
    31    28    23   ar
@<TRIPOS>MOLECULE
*****
 28 31 0 0 0
SMALL
GASTEIGER

@<TRIPOS>ATOM
      1 C         143.2229  142.2525  161.6873 C.3     1  UNL1        0.0252
      2 C         143.2887  142.6801  163.1236 C.3     1  UNL1        0.0217
      3 C         143.8587  141.7538  164.1566 C.3     1  UNL1        0.0724
      4 N         144.3629  140.3998  163.7532 N.3     1  UNL1       -0.2726
      5 C         144.2971  139.9723  162.3170 C.3     1  UNL1        0.0724
      6 C         143.7271  140.8986  161.2840 C.3     1  UNL1        0.0217
      7 C         141.5129  145.0315  158.5885 C.ar    1  UNL1        0.1724
      8 C         142.6429  144.1125  158.2299 C.ar    1  UNL1        0.0397
      9 C         143.2129  143.1862  159.2628 C.ar    1  UNL1       -0.0010
     10 C         142.6529  143.1789  160.6544 C.ar    1  UNL1       -0.0192
     11 C         141.5229  144.0979  161.0130 C.ar    1  UNL1        0.0358
     12 C         140.9529  145.0242  159.9800 C.ar    1  UNL1        0.1721
     13 C         139.8307  145.4928  156.6631 C.3     1  UNL1        0.2526
     14 O         140.9429  145.9579  157.5555 O.3     1  UNL1       -0.4684
     15 O         139.8230  145.9433  160.3386 O.3     1  UNL1       -0.4684
     16 C         139.5810  146.3102  161.7727 C.3     1  UNL1        0.2526
     17 C         144.9329  139.4735  164.7862 C.3     1  UNL1        0.0724
     18 C         144.0375  138.5060  165.5018 C.3     1  UNL1        0.0219
     19 C         142.6867  138.9481  165.9813 C.3     1  UNL1        0.0304
     20 C         142.5650  139.7576  167.2383 C.3     1  UNL1        0.0518
     21 C         141.2142  140.1997  167.7178 C.3     1  UNL1        0.2057
     22 O         139.9851  139.8324  166.9404 O.3     1  UNL1       -0.4758
     23 C         140.1068  139.0229  165.6834 C.ar    1  UNL1        0.1345
     24 C         138.8777  138.6556  164.9059 C.ar    1  UNL1        0.0366
     25 C         138.9994  137.8462  163.6490 C.ar    1  UNL1        0.0031
     26 C         140.3502  137.4040  163.1695 C.ar    1  UNL1       -0.0001
     27 C         141.5793  137.7714  163.9469 C.ar    1  UNL1       -0.0013
     28 C         141.4576  138.5808  165.2038 C.ar    1  UNL1        0.0116
@<TRIPOS>BOND
     1    13    14    1
     2    14     7    1
     3     7     8   ar
     4     8     9   ar
     5     9    10   ar
     6    10     1    1
     7     1     2    1
     8     2     3    1
     9     3     4    1
    10     4    17    1
    11    17    18    1
    12    19    18    1
    13    19    20    1
    14    20    21    1
    15    21    22    1
    16    22    23    1
    17    23    24   ar
    18    24    25   ar
    19    25    26   ar
    20    26    27   ar
    21    27    28   ar
    22     4     5    1
    23     5     6    1
    24    10    11   ar
    25    11    12   ar
    26    12    15    1
    27    15    16    1
    28    12     7   ar
    29     6     1    1
    30    28    19    1
    31    28    23   ar
@<TRIPOS>MOLECULE
*****
 28 31 0 0 0
SMALL
GASTEIGER

@<TRIPOS>ATOM
      1 C         143.6035  141.6238  162.4689 C.3     1  UNL1        0.0252
      2 C         143.4919  140.4166  163.3524 C.3     1  UNL1        0.0217
      3 C         143.2448  140.5834  164.8224 C.3     1  UNL1        0.0724
      4 N         143.1093  141.9573  165.4091 N.3     1  UNL1       -0.2726
      5 C         143.2209  143.1644  164.5256 C.3     1  UNL1        0.0724
      6 C         143.4680  142.9976  163.0556 C.3     1  UNL1        0.0217
      7 C         144.3449  141.1235  158.0587 C.ar    1  UNL1        0.1724
      8 C         144.6287  142.4383  158.7225 C.ar    1  UNL1        0.0397
      9 C         144.3816  142.6051  160.1926 C.ar    1  UNL1       -0.0010
     10 C         143.8507  141.4571  160.9988 C.ar    1  UNL1       -0.0192
     11 C         143.5669  140.1422  160.3350 C.ar    1  UNL1        0.0358
     12 C         143.8140  139.9754  158.8650 C.ar    1  UNL1        0.1721
     13 C         145.9570  141.2161  156.0234 C.3     1  UNL1        0.2526
     14 O         144.5920  140.9568  156.5886 O.3     1  UNL1       -0.4684
     15 O         143.5302  138.6606  158.2011 O.3     1  UNL1       -0.4684
     16 C         142.1797  138.3982  157.6036 C.3     1  UNL1        0.2526
     17 C         142.8622  142.1241  166.8791 C.3     1  UNL1        0.0724
     18 C         141.4574  142.1953  167.4002 C.3     1  UNL1        0.0219
     19 C         140.3368  141.5700  166.6236 C.3     1  UNL1        0.0304
     20 C         140.0307  140.1112  166.7912 C.3     1  UNL1        0.0518
     21 C         138.9101  139.4858  166.0146 C.3     1  UNL1        0.2057
     22 O         138.0955  140.3193  165.0703 O.3     1  UNL1       -0.4758
     23 C         138.4016  141.7782  164.9026 C.ar    1  UNL1        0.1345
     24 C         137.5870  142.6117  163.9583 C.ar    1  UNL1        0.0366
     25 C         137.8930  144.0705  163.7907 C.ar    1  UNL1        0.0031
     26 C         139.0136  144.6958  164.5673 C.ar    1  UNL1       -0.0001
     27 C         139.8282  143.8624  165.5116 C.ar    1  UNL1       -0.0013
     28 C         139.5222  142.4035  165.6792 C.ar    1  UNL1        0.0116
@<TRIPOS>BOND
     1    13    14    1
     2    14     7    1
     3     7     8   ar
     4     8     9   ar
     5     9    10   ar
     6    10     1    1
     7     1     2    1
     8     2     3    1
     9     3     4    1
    10     4    17    1
    11    17    18    1
    12    19    18    1
    13    19    20    1
    14    20    21    1
    15    21    22    1
    16    22    23    1
    17    23    24   ar
    18    24    25   ar
    19    25    26   ar
    20    26    27   ar
    21    27    28   ar
    22     4     5    1
    23     5     6    1
    24    10    11   ar
    25    11    12   ar
    26    12    15    1
    27    15    16    1
    28    12     7   ar
    29     6     1    1
    30    28    19    1
    31    28    23   ar
@<TRIPOS>MOLECULE
*****
 28 31 0 0 0
SMALL
GASTEIGER

@<TRIPOS>ATOM
      1 C         142.0608  139.0274  164.9701 C.3     1  UNL1        0.0252
      2 C         141.1551  138.1299  164.1800 C.3     1  UNL1        0.0217
      3 C         141.5705  137.6552  162.8191 C.3     1  UNL1        0.0724
      4 N         142.8918  138.0779  162.2483 N.3     1  UNL1       -0.2726
      5 C         143.7974  138.9754  163.0384 C.3     1  UNL1        0.0724
      6 C         143.3820  139.4501  164.3993 C.3     1  UNL1        0.0217
      7 C         140.8144  140.4515  169.0528 C.ar    1  UNL1        0.1724
      8 C         139.7743  140.0660  168.0431 C.ar    1  UNL1        0.0397
      9 C         140.1898  139.5913  166.6822 C.ar    1  UNL1       -0.0010
     10 C         141.6454  139.5021  166.3310 C.ar    1  UNL1       -0.0192
     11 C         142.6855  139.8876  167.3407 C.ar    1  UNL1        0.0358
     12 C         142.2701  140.3623  168.7016 C.ar    1  UNL1        0.1721
     13 C         140.0322  142.3650  170.6265 C.3     1  UNL1        0.2526
     14 O         140.3989  140.9262  170.4137 O.3     1  UNL1       -0.4684
     15 O         143.3101  140.7479  169.7113 O.3     1  UNL1       -0.4684
     16 C         143.7348  142.1806  169.8409 C.3     1  UNL1        0.2526
     17 C         143.3072  137.6032  160.8874 C.3     1  UNL1        0.0724
     18 C         143.1259  138.4943  159.6946 C.3     1  UNL1        0.0219
     19 C         141.7935  138.5689  159.0097 C.3     1  UNL1        0.0304
     20 C         140.7157  139.4550  159.5604 C.3     1  UNL1        0.0518
     21 C         139.3832  139.5295  158.8755 C.3     1  UNL1        0.2057
     22 O         139.1286  138.7180  157.6400 O.3     1  UNL1       -0.4758
     23 C         140.2063  137.8319  157.0893 C.ar    1  UNL1        0.1345
     24 C         139.9516  137.0204  155.8538 C.ar    1  UNL1        0.0366
     25 C         141.0294  136.1343  155.3031 C.ar    1  UNL1        0.0031
     26 C         142.3618  136.0597  155.9880 C.ar    1  UNL1       -0.0001
     27 C         142.6165  136.8712  157.2235 C.ar    1  UNL1       -0.0013
     28 C         141.5388  137.7573  157.7741 C.ar    1  UNL1        0.0116
@<TRIPOS>BOND
     1    13    14    1
     2    14     7    1
     3     7     8   ar
     4     8     9   ar
     5     9    10   ar
     6    10     1    1
     7     1     2    1
     8     2     3    1
     9     3     4    1
    10     4    17    1
    11    17    18    1
    12    19    18    1
    13    19    20    1
    14    20    21    1
    15    21    22    1
    16    22    23    1
    17    23    24   ar
    18    24    25   ar
    19    25    26   ar
    20    26    27   ar
    21    27    28   ar
    22     4     5    1
    23     5     6    1
    24    10    11   ar
    25    11    12   ar
    26    12    15    1
    27    15    16    1
    28    12     7   ar
    29     6     1    1
    30    28    19    1
    31    28    23   ar
@<TRIPOS>MOLECULE
*****
 28 31 0 0 0
SMALL
GASTEIGER

@<TRIPOS>ATOM
      1 C         140.4959  138.3348  160.9994 C.3     1  UNL1        0.0252
      2 C         139.0181  138.3546  161.2560 C.3     1  UNL1        0.0217
      3 C         138.4941  138.1146  162.6409 C.3     1  UNL1        0.0724
      4 N         139.4479  137.8549  163.7691 N.3     1  UNL1       -0.2726
      5 C         140.9256  137.8351  163.5125 C.3     1  UNL1        0.0724
      6 C         141.4496  138.0750  162.1276 C.3     1  UNL1        0.0217
      7 C         142.0679  139.0546  156.8448 C.ar    1  UNL1        0.1724
      8 C         140.6495  138.6087  157.0432 C.ar    1  UNL1        0.0397
      9 C         140.1255  138.3688  158.4281 C.ar    1  UNL1       -0.0010
     10 C         141.0199  138.5747  159.6145 C.ar    1  UNL1       -0.0192
     11 C         142.4384  139.0206  159.4161 C.ar    1  UNL1        0.0358
     12 C         142.9623  139.2605  158.0312 C.ar    1  UNL1        0.1721
     13 C         143.3671  138.2213  154.7549 C.3     1  UNL1        0.2526
     14 O         142.5919  139.2945  155.4599 O.3     1  UNL1       -0.4684
     15 O         144.3807  139.7064  157.8328 O.3     1  UNL1       -0.4684
     16 C         144.6825  141.1518  157.5688 C.3     1  UNL1        0.2526
     17 C         138.9239  137.6149  165.1540 C.3     1  UNL1        0.0724
     18 C         138.3450  138.7509  165.9441 C.3     1  UNL1        0.0219
     19 C         139.1858  139.9537  166.2548 C.3     1  UNL1        0.0304
     20 C         140.2479  139.8738  167.3109 C.3     1  UNL1        0.0518
     21 C         141.0887  141.0765  167.6215 C.3     1  UNL1        0.2057
     22 O         140.8673  142.3592  166.8761 O.3     1  UNL1       -0.4758
     23 C         139.8051  142.4391  165.8199 C.ar    1  UNL1        0.1345
     24 C         139.5837  143.7218  165.0745 C.ar    1  UNL1        0.0366
     25 C         138.5215  143.8017  164.0184 C.ar    1  UNL1        0.0031
     26 C         137.6807  142.5989  163.7077 C.ar    1  UNL1       -0.0001
     27 C         137.9021  141.3163  164.4532 C.ar    1  UNL1       -0.0013
     28 C         138.9643  141.2364  165.5093 C.ar    1  UNL1        0.0116
@<TRIPOS>BOND
     1    13    14    1
     2    14     7    1
     3     7     8   ar
     4     8     9   ar
     5     9    10   ar
     6    10     1    1
     7     1     2    1
     8     2     3    1
     9     3     4    1
    10     4    17    1
    11    17    18    1
    12    19    18    1
    13    19    20    1
    14    20    21    1
    15    21    22    1
    16    22    23    1
    17    23    24   ar
    18    24    25   ar
    19    25    26   ar
    20    26    27   ar
    21    27    28   ar
    22     4     5    1
    23     5     6    1
    24    10    11   ar
    25    11    12   ar
    26    12    15    1
    27    15    16    1
    28    12     7   ar
    29     6     1    1
    30    28    19    1
    31    28    23   ar
@<TRIPOS>MOLECULE
*****
 28 31 0 0 0
SMALL
GASTEIGER

@<TRIPOS>ATOM
      1 C         142.0991  139.0951  161.4899 C.3     1  UNL1        0.0252
      2 C         143.5454  139.1846  161.8777 C.3     1  UNL1        0.0217
      3 C         143.9248  139.6067  163.2662 C.3     1  UNL1        0.0724
      4 N         142.8580  139.9394  164.2669 N.3     1  UNL1       -0.2726
      5 C         141.4118  139.8499  163.8790 C.3     1  UNL1        0.0724
      6 C         141.0323  139.4277  162.4906 C.3     1  UNL1        0.0217
      7 C         140.9608  137.8287  157.3245 C.ar    1  UNL1        0.1724
      8 C         139.9427  138.4750  158.2165 C.ar    1  UNL1        0.0397
      9 C         140.3221  138.8971  159.6050 C.ar    1  UNL1       -0.0010
     10 C         141.7197  138.6730  160.1015 C.ar    1  UNL1       -0.0192
     11 C         142.7379  138.0267  159.2095 C.ar    1  UNL1        0.0358
     12 C         142.3584  137.6045  157.8210 C.ar    1  UNL1        0.1721
     13 C         139.1632  137.0264  155.6289 C.3     1  UNL1        0.2526
     14 O         140.5813  137.4065  155.9361 O.3     1  UNL1       -0.4684
     15 O         143.3766  136.9583  156.9290 O.3     1  UNL1       -0.4684
     16 C         143.3629  135.4717  156.7293 C.3     1  UNL1        0.2526
     17 C         143.2374  140.3615  165.6553 C.3     1  UNL1        0.0724
     18 C         143.2706  141.8176  166.0138 C.3     1  UNL1        0.0219
     19 C         143.0899  142.8569  164.9473 C.3     1  UNL1        0.0304
     20 C         144.2484  143.2503  164.0795 C.3     1  UNL1        0.0518
     21 C         144.0678  144.2895  163.0131 C.3     1  UNL1        0.2057
     22 O         142.7287  144.9354  162.8144 O.3     1  UNL1       -0.4758
     23 C         141.5701  144.5421  163.6823 C.ar    1  UNL1        0.1345
     24 C         140.2310  145.1879  163.4836 C.ar    1  UNL1        0.0366
     25 C         139.0725  144.7946  164.3514 C.ar    1  UNL1        0.0031
     26 C         139.2531  143.7553  165.4178 C.ar    1  UNL1       -0.0001
     27 C         140.5922  143.1094  165.6165 C.ar    1  UNL1       -0.0013
     28 C         141.7507  143.5028  164.7487 C.ar    1  UNL1        0.0116
@<TRIPOS>BOND
     1    13    14    1
     2    14     7    1
     3     7     8   ar
     4     8     9   ar
     5     9    10   ar
     6    10     1    1
     7     1     2    1
     8     2     3    1
     9     3     4    1
    10     4    17    1
    11    17    18    1
    12    19    18    1
    13    19    20    1
    14    20    21    1
    15    21    22    1
    16    22    23    1
    17    23    24   ar
    18    24    25   ar
    19    25    26   ar
    20    26    27   ar
    21    27    28   ar
    22     4     5    1
    23     5     6    1
    24    10    11   ar
    25    11    12   ar
    26    12    15    1
    27    15    16    1
    28    12     7   ar
    29     6     1    1
    30    28    19    1
    31    28    23   ar
@<TRIPOS>MOLECULE
*****
 28 31 0 0 0
SMALL
GASTEIGER

@<TRIPOS>ATOM
      1 C         140.5472  139.2836  164.5889 C.3     1  UNL1        0.0252
      2 C         139.1923  138.6715  164.3892 C.3     1  UNL1        0.0217
      3 C         138.5716  138.6531  163.0237 C.3     1  UNL1        0.0724
      4 N         139.3058  139.2466  161.8581 N.3     1  UNL1       -0.2726
      5 C         140.6606  139.8586  162.0579 C.3     1  UNL1        0.0724
      6 C         141.2813  139.8771  163.4233 C.3     1  UNL1        0.0217
      7 C         142.4092  139.3390  168.6853 C.ar    1  UNL1        0.1724
      8 C         143.1977  138.8431  167.5096 C.ar    1  UNL1        0.0397
      9 C         142.5771  138.8246  166.1442 C.ar    1  UNL1       -0.0010
     10 C         141.1678  139.3020  165.9544 C.ar    1  UNL1       -0.0192
     11 C         140.3792  139.7980  167.1301 C.ar    1  UNL1        0.0358
     12 C         140.9998  139.8164  168.4955 C.ar    1  UNL1        0.1721
     13 C         143.3232  140.6655  170.7236 C.3     1  UNL1        0.2526
     14 O         143.0298  139.3574  170.0507 O.3     1  UNL1       -0.4684
     15 O         140.2113  140.3123  169.6712 O.3     1  UNL1       -0.4684
     16 C         139.8541  141.7654  169.7755 C.3     1  UNL1        0.2526
     17 C         138.6852  139.2282  160.4926 C.3     1  UNL1        0.0724
     18 C         137.8949  140.4090  160.0120 C.3     1  UNL1        0.0219
     19 C         138.4681  141.7907  160.1233 C.3     1  UNL1        0.0304
     20 C         139.1982  142.3957  158.9611 C.3     1  UNL1        0.0518
     21 C         139.7714  143.7774  159.0724 C.3     1  UNL1        0.2057
     22 O         139.6145  144.5540  160.3460 O.3     1  UNL1       -0.4758
     23 C         138.8843  143.9490  161.5084 C.ar    1  UNL1        0.1345
     24 C         138.7274  144.7257  162.7820 C.ar    1  UNL1        0.0366
     25 C         137.9973  144.1207  163.9442 C.ar    1  UNL1        0.0031
     26 C         137.4241  142.7390  163.8329 C.ar    1  UNL1       -0.0001
     27 C         137.5810  141.9623  162.5593 C.ar    1  UNL1       -0.0013
     28 C         138.3111  142.5673  161.3970 C.ar    1  UNL1        0.0116
@<TRIPOS>BOND
     1    13    14    1
     2    14     7    1
     3     7     8   ar
     4     8     9   ar
     5     9    10   ar
     6    10     1    1
     7     1     2    1
     8     2     3    1
     9     3     4    1
    10     4    17    1
    11    17    18    1
    12    19    18    1
    13    19    20    1
    14    20    21    1
    15    21    22    1
    16    22    23    1
    17    23    24   ar
    18    24    25   ar
    19    25    26   ar
    20    26    27   ar
    21    27    28   ar
    22     4     5    1
    23     5     6    1
    24    10    11   ar
    25    11    12   ar
    26    12    15    1
    27    15    16    1
    28    12     7   ar
    29     6     1    1
    30    28    19    1
    31    28    23   ar
@<TRIPOS>MOLECULE
*****
 28 31 0 0 0
SMALL
GASTEIGER

@<TRIPOS>ATOM
      1 C         141.2010  138.5122  161.6177 C.3     1  UNL1        0.0252
      2 C         139.7102  138.3748  161.5230 C.3     1  UNL1        0.0217
      3 C         138.9079  138.0475  162.7475 C.3     1  UNL1        0.0724
      4 N         139.5964  137.8576  164.0666 N.3     1  UNL1       -0.2726
      5 C         141.0870  137.9949  164.1612 C.3     1  UNL1        0.0724
      6 C         141.8893  138.3222  162.9368 C.3     1  UNL1        0.0217
      7 C         143.6078  139.4941  157.9445 C.ar    1  UNL1        0.1724
      8 C         143.7953  140.2934  159.1998 C.ar    1  UNL1        0.0397
      9 C         142.9930  139.9661  160.4242 C.ar    1  UNL1       -0.0010
     10 C         142.0033  138.8395  160.3933 C.ar    1  UNL1       -0.0192
     11 C         141.8158  138.0400  159.1380 C.ar    1  UNL1        0.0358
     12 C         142.6181  138.3673  157.9136 C.ar    1  UNL1        0.1721
     13 C         145.2958  141.0319  156.7052 C.3     1  UNL1        0.2526
     14 O         144.4101  139.8214  156.7201 O.3     1  UNL1       -0.4684
     15 O         142.4306  137.5680  156.6582 O.3     1  UNL1       -0.4684
     16 C         143.3661  136.4392  156.3413 C.3     1  UNL1        0.2526
     17 C         138.7941  137.5302  165.2910 C.3     1  UNL1        0.0724
     18 C         138.1944  138.6333  166.1117 C.3     1  UNL1        0.0219
     19 C         138.9860  139.8768  166.3896 C.3     1  UNL1        0.0304
     20 C         139.9382  139.9165  167.5479 C.3     1  UNL1        0.0518
     21 C         140.7297  141.1600  167.8258 C.3     1  UNL1        0.2057
     22 O         140.5691  142.3637  166.9454 O.3     1  UNL1       -0.4758
     23 C         139.6168  142.3240  165.7870 C.ar    1  UNL1        0.1345
     24 C         139.4562  143.5278  164.9066 C.ar    1  UNL1        0.0366
     25 C         138.5040  143.4880  163.7483 C.ar    1  UNL1        0.0031
     26 C         137.7124  142.2445  163.4704 C.ar    1  UNL1       -0.0001
     27 C         137.8731  141.0408  164.3508 C.ar    1  UNL1       -0.0013
     28 C         138.8253  141.0805  165.5091 C.ar    1  UNL1        0.0116
@<TRIPOS>BOND
     1    13    14    1
     2    14     7    1
     3     7     8   ar
     4     8     9   ar
     5     9    10   ar
     6    10     1    1
     7     1     2    1
     8     2     3    1
     9     3     4    1
    10     4    17    1
    11    17    18    1
    12    19    18    1
    13    19    20    1
    14    20    21    1
    15    21    22    1
    16    22    23    1
    17    23    24   ar
    18    24    25   ar
    19    25    26   ar
    20    26    27   ar
    21    27    28   ar
    22     4     5    1
    23     5     6    1
    24    10    11   ar
    25    11    12   ar
    26    12    15    1
    27    15    16    1
    28    12     7   ar
    29     6     1    1
    30    28    19    1
    31    28    23   ar
@<TRIPOS>MOLECULE
*****
 28 31 0 0 0
SMALL
GASTEIGER

@<TRIPOS>ATOM
      1 C         140.4129  138.9789  161.4290 C.3     1  UNL1        0.0252
      2 C         141.4596  139.0321  162.5023 C.3     1  UNL1        0.0217
      3 C         141.0843  139.4388  163.8964 C.3     1  UNL1        0.0724
      4 N         139.6623  139.7924  164.2174 N.3     1  UNL1       -0.2726
      5 C         138.6157  139.7392  163.1442 C.3     1  UNL1        0.0724
      6 C         138.9910  139.3325  161.7500 C.3     1  UNL1        0.0217
      7 C         141.5389  137.7587  157.2466 C.ar    1  UNL1        0.1724
      8 C         142.5896  137.8337  158.3145 C.ar    1  UNL1        0.0397
      9 C         142.2142  138.2404  159.7086 C.ar    1  UNL1       -0.0010
     10 C         140.7883  138.5722  160.0349 C.ar    1  UNL1       -0.0192
     11 C         139.7375  138.4971  158.9670 C.ar    1  UNL1        0.0358
     12 C         140.1128  138.0904  157.5728 C.ar    1  UNL1        0.1721
     13 C         143.1615  136.5535  155.6142 C.3     1  UNL1        0.2526
     14 O         141.9142  137.3519  155.8524 O.3     1  UNL1       -0.4684
     15 O         139.0622  138.0154  156.5049 O.3     1  UNL1       -0.4684
     16 C         138.7454  139.2261  155.6781 C.3     1  UNL1        0.2526
     17 C         139.2870  140.1992  165.6115 C.3     1  UNL1        0.0724
     18 C         139.7645  141.5090  166.1649 C.3     1  UNL1        0.0219
     19 C         139.7885  142.7282  165.2914 C.3     1  UNL1        0.0304
     20 C         138.5030  143.3209  164.7955 C.3     1  UNL1        0.0518
     21 C         138.5270  144.5401  163.9220 C.3     1  UNL1        0.2057
     22 O         139.8365  145.1665  163.5443 O.3     1  UNL1       -0.4758
     23 C         141.1222  144.5737  164.0402 C.ar    1  UNL1        0.1345
     24 C         142.4317  145.2001  163.6626 C.ar    1  UNL1        0.0366
     25 C         143.7173  144.6074  164.1585 C.ar    1  UNL1        0.0031
     26 C         143.6933  143.3882  165.0320 C.ar    1  UNL1       -0.0001
     27 C         142.3837  142.7618  165.4096 C.ar    1  UNL1       -0.0013
     28 C         141.0982  143.3546  164.9137 C.ar    1  UNL1        0.0116
@<TRIPOS>BOND
     1    13    14    1
     2    14     7    1
     3     7     8   ar
     4     8     9   ar
     5     9    10   ar
     6    10     1    1
     7     1     2    1
     8     2     3    1
     9     3     4    1
    10     4    17    1
    11    17    18    1
    12    19    18    1
    13    19    20    1
    14    20    21    1
    15    21    22    1
    16    22    23    1
    17    23    24   ar
    18    24    25   ar
    19    25    26   ar
    20    26    27   ar
    21    27    28   ar
    22     4     5    1
    23     5     6    1
    24    10    11   ar
    25    11    12   ar
    26    12    15    1
    27    15    16    1
    28    12     7   ar
    29     6     1    1
    30    28    19    1
    31    28    23   ar
