@<TRIPOS>MOLECULE
*****
 23 24 0 0 0
SMALL
GASTEIGER

@<TRIPOS>ATOM
      1 N         140.1405  145.5282  163.8389 N.pl3   1  UNL1       -0.3340
      2 H         140.3915  146.3617  164.2987 H       1  UNL1        0.1468
      3 C         140.9380  145.0518  162.6612 C.ar    1  UNL1        0.0476
      4 C         140.4983  145.3959  161.2690 C.ar    1  UNL1        0.0350
      5 C         141.2958  144.9194  160.0913 C.ar    1  UNL1        0.1001
      6 N         142.5330  144.0989  160.3058 N.ar    1  UNL1       -0.2437
      7 C         142.9727  143.7548  161.6980 C.ar    1  UNL1        0.0833
      8 C         144.2099  142.9342  161.9125 C.ar    1  UNL1        0.0305
      9 C         144.6496  142.5901  163.3047 C.ar    1  UNL1        0.0592
     10 CL        145.8869  141.7696  163.5192 Cl      1  UNL1       -0.0822
     11 C         143.8521  143.0666  164.4824 C.ar    1  UNL1        0.0115
     12 C         142.6149  143.8871  164.2679 C.ar    1  UNL1        0.0036
     13 C         142.1752  144.2312  162.8757 C.ar    1  UNL1        0.0309
     14 C         138.9605  144.7346  164.3162 C.3     1  UNL1        0.0691
     15 C         138.4215  144.9501  165.6993 C.3     1  UNL1        0.0212
     16 C         138.3194  143.7254  163.4103 C.3     1  UNL1        0.0209
     17 C         138.3528  142.2689  163.7673 C.3     1  UNL1        0.0190
     18 C         139.5102  141.7131  164.5430 C.3     1  UNL1        0.0721
     19 N         139.2646  140.7786  165.6903 N.3     1  UNL1       -0.2727
     20 C         140.5553  142.3471  167.3103 C.3     1  UNL1        0.0188
     21 C         139.9481  141.0097  167.0053 C.3     1  UNL1        0.0721
     22 C         138.3354  139.6131  165.5226 C.3     1  UNL1        0.0721
     23 C         137.9210  138.8063  166.7172 C.3     1  UNL1        0.0188
@<TRIPOS>BOND
     1    20    21    1
     2    21    19    1
     3    19    22    1
     4    22    23    1
     5    19    18    1
     6    18    17    1
     7    17    16    1
     8    16    14    1
     9    14    15    1
    10    14     1    1
    11     1     3    1
    12     3     4   ar
    13     4     5   ar
    14     5     6   ar
    15     6     7   ar
    16     7     8   ar
    17     8     9   ar
    18     9    10    1
    19     9    11   ar
    20    11    12   ar
    21    12    13   ar
    22    13     3   ar
    23    13     7   ar
    24     1     2    1
@<TRIPOS>MOLECULE
*****
 23 24 0 0 0
SMALL
GASTEIGER

@<TRIPOS>ATOM
      1 N         140.1556  145.5388  163.8264 N.pl3   1  UNL1       -0.3340
      2 H         140.4177  146.3607  164.3008 H       1  UNL1        0.1468
      3 C         140.9465  145.0730  162.6400 C.ar    1  UNL1        0.0476
      4 C         140.4983  145.4282  161.2534 C.ar    1  UNL1        0.0350
      5 C         141.2892  144.9624  160.0670 C.ar    1  UNL1        0.1001
      6 N         142.5284  144.1413  160.2673 N.ar    1  UNL1       -0.2437
      7 C         142.9767  143.7861  161.6540 C.ar    1  UNL1        0.0833
      8 C         144.2159  142.9649  161.8543 C.ar    1  UNL1        0.0305
      9 C         144.6642  142.6097  163.2410 C.ar    1  UNL1        0.0592
     10 CL        145.9035  141.7886  163.4413 Cl      1  UNL1       -0.0822
     11 C         143.8733  143.0755  164.4273 C.ar    1  UNL1        0.0115
     12 C         142.6341  143.8966  164.2270 C.ar    1  UNL1        0.0036
     13 C         142.1857  144.2519  162.8403 C.ar    1  UNL1        0.0309
     14 C         138.9653  144.7525  164.2899 C.3     1  UNL1        0.0691
     15 C         138.4162  144.9661  165.6693 C.3     1  UNL1        0.0212
     16 C         138.3241  143.7524  163.3739 C.3     1  UNL1        0.0209
     17 C         138.2953  142.3009  163.7507 C.3     1  UNL1        0.0190
     18 C         139.4622  141.6887  164.4675 C.3     1  UNL1        0.0721
     19 N         139.2362  140.8604  165.6975 N.3     1  UNL1       -0.2727
     20 C         138.7828  138.3737  165.0970 C.3     1  UNL1        0.0188
     21 C         138.3064  139.6845  165.6494 C.3     1  UNL1        0.0721
     22 C         139.9402  141.2082  166.9756 C.3     1  UNL1        0.0721
     23 C         140.8034  142.4328  167.0471 C.3     1  UNL1        0.0188
@<TRIPOS>BOND
     1    20    21    1
     2    21    19    1
     3    19    22    1
     4    22    23    1
     5    19    18    1
     6    18    17    1
     7    17    16    1
     8    16    14    1
     9    14    15    1
    10    14     1    1
    11     1     3    1
    12     3     4   ar
    13     4     5   ar
    14     5     6   ar
    15     6     7   ar
    16     7     8   ar
    17     8     9   ar
    18     9    10    1
    19     9    11   ar
    20    11    12   ar
    21    12    13   ar
    22    13     3   ar
    23    13     7   ar
    24     1     2    1
@<TRIPOS>MOLECULE
*****
 23 24 0 0 0
SMALL
GASTEIGER

@<TRIPOS>ATOM
      1 N         139.2699  145.0296  163.9515 N.pl3   1  UNL1       -0.3340
      2 H         138.8209  145.7124  164.5005 H       1  UNL1        0.1468
      3 C         138.8027  143.6049  163.9965 C.ar    1  UNL1        0.0476
      4 C         137.9058  143.0752  162.9172 C.ar    1  UNL1        0.0350
      5 C         137.4387  141.6505  162.9623 C.ar    1  UNL1        0.1001
      6 N         137.8684  140.7555  164.0866 N.ar    1  UNL1       -0.2437
      7 C         138.7653  141.2852  165.1660 C.ar    1  UNL1        0.0833
      8 C         139.1951  140.3902  166.2904 C.ar    1  UNL1        0.0305
      9 C         140.0919  140.9199  167.3697 C.ar    1  UNL1        0.0592
     10 CL        140.5217  140.0248  168.4942 Cl      1  UNL1       -0.0822
     11 C         140.5591  142.3445  167.3247 C.ar    1  UNL1        0.0115
     12 C         140.1294  143.2395  166.2003 C.ar    1  UNL1        0.0036
     13 C         139.2324  142.7099  165.1209 C.ar    1  UNL1        0.0309
     14 C         140.4210  145.4139  163.0699 C.3     1  UNL1        0.0691
     15 C         140.1739  145.8137  161.6455 C.3     1  UNL1        0.0212
     16 C         141.8192  145.3984  163.6128 C.3     1  UNL1        0.0209
     17 C         142.7907  144.3520  163.1532 C.3     1  UNL1        0.0190
     18 C         142.3592  142.9185  163.0570 C.3     1  UNL1        0.0721
     19 N         143.2420  141.8319  163.5952 N.3     1  UNL1       -0.2727
     20 C         145.8272  141.5780  163.6442 C.3     1  UNL1        0.0188
     21 C         144.5278  141.4965  162.8993 C.3     1  UNL1        0.0721
     22 C         142.8391  141.0805  164.8294 C.3     1  UNL1        0.0721
     23 C         142.6637  139.5918  164.7774 C.3     1  UNL1        0.0188
@<TRIPOS>BOND
     1    20    21    1
     2    21    19    1
     3    19    22    1
     4    22    23    1
     5    19    18    1
     6    18    17    1
     7    17    16    1
     8    16    14    1
     9    14    15    1
    10    14     1    1
    11     1     3    1
    12     3     4   ar
    13     4     5   ar
    14     5     6   ar
    15     6     7   ar
    16     7     8   ar
    17     8     9   ar
    18     9    10    1
    19     9    11   ar
    20    11    12   ar
    21    12    13   ar
    22    13     3   ar
    23    13     7   ar
    24     1     2    1
@<TRIPOS>MOLECULE
*****
 23 24 0 0 0
SMALL
GASTEIGER

@<TRIPOS>ATOM
      1 N         138.4818  139.3632  164.8885 N.pl3   1  UNL1       -0.3340
      2 H         137.5380  139.3235  165.1659 H       1  UNL1        0.1468
      3 C         139.3099  140.5700  165.2167 C.ar    1  UNL1        0.0476
      4 C         139.8044  141.4620  164.1168 C.ar    1  UNL1        0.0350
      5 C         140.6325  142.6689  164.4450 C.ar    1  UNL1        0.1001
      6 N         140.9662  142.9837  165.8731 N.ar    1  UNL1       -0.2437
      7 C         140.4717  142.0917  166.9730 C.ar    1  UNL1        0.0833
      8 C         140.8054  142.4065  168.4012 C.ar    1  UNL1        0.0305
      9 C         140.3110  141.5145  169.5010 C.ar    1  UNL1        0.0592
     10 CL        140.6446  141.8293  170.9292 Cl      1  UNL1       -0.0822
     11 C         139.4828  140.3077  169.1728 C.ar    1  UNL1        0.0115
     12 C         139.1492  139.9928  167.7447 C.ar    1  UNL1        0.0036
     13 C         139.6436  140.8849  166.6448 C.ar    1  UNL1        0.0309
     14 C         139.0916  138.2168  164.1376 C.3     1  UNL1        0.0691
     15 C         138.7535  138.0026  162.6919 C.3     1  UNL1        0.0212
     16 C         140.0395  137.2846  164.8322 C.3     1  UNL1        0.0209
     17 C         141.4993  137.3058  164.4882 C.3     1  UNL1        0.0190
     18 C         142.1764  138.6063  164.1713 C.3     1  UNL1        0.0721
     19 N         143.1272  139.2167  165.1578 N.3     1  UNL1       -0.2727
     20 C         142.7920  139.2293  167.7342 C.3     1  UNL1        0.0188
     21 C         143.3326  138.5744  166.4976 C.3     1  UNL1        0.0721
     22 C         143.8727  140.4695  164.8045 C.3     1  UNL1        0.0721
     23 C         144.8788  140.4551  163.6921 C.3     1  UNL1        0.0188
@<TRIPOS>BOND
     1    20    21    1
     2    21    19    1
     3    19    22    1
     4    22    23    1
     5    19    18    1
     6    18    17    1
     7    17    16    1
     8    16    14    1
     9    14    15    1
    10    14     1    1
    11     1     3    1
    12     3     4   ar
    13     4     5   ar
    14     5     6   ar
    15     6     7   ar
    16     7     8   ar
    17     8     9   ar
    18     9    10    1
    19     9    11   ar
    20    11    12   ar
    21    12    13   ar
    22    13     3   ar
    23    13     7   ar
    24     1     2    1
@<TRIPOS>MOLECULE
*****
 23 24 0 0 0
SMALL
GASTEIGER

@<TRIPOS>ATOM
      1 N         140.1140  145.3452  164.1121 N.pl3   1  UNL1       -0.3340
      2 H         140.3001  146.2435  164.4695 H       1  UNL1        0.1468
      3 C         140.6173  144.1313  164.8353 C.ar    1  UNL1        0.0476
      4 C         139.7866  143.5035  165.9150 C.ar    1  UNL1        0.0350
      5 C         140.2899  142.2896  166.6383 C.ar    1  UNL1        0.1001
      6 N         141.6238  141.7034  166.2819 N.ar    1  UNL1       -0.2437
      7 C         142.4544  142.3312  165.2022 C.ar    1  UNL1        0.0833
      8 C         143.7884  141.7451  164.8457 C.ar    1  UNL1        0.0305
      9 C         144.6191  142.3729  163.7659 C.ar    1  UNL1        0.0592
     10 CL        145.9530  141.7867  163.4094 Cl      1  UNL1       -0.0822
     11 C         144.1158  143.5868  163.0427 C.ar    1  UNL1        0.0115
     12 C         142.7819  144.1729  163.3991 C.ar    1  UNL1        0.0036
     13 C         141.9512  143.5452  164.4789 C.ar    1  UNL1        0.0309
     14 C         139.3274  145.1905  162.8443 C.3     1  UNL1        0.0691
     15 C         139.8066  145.8406  161.5803 C.3     1  UNL1        0.0212
     16 C         138.0616  144.3857  162.8406 C.3     1  UNL1        0.0209
     17 C         138.0833  142.9558  162.3882 C.3     1  UNL1        0.0190
     18 C         137.4573  141.8904  163.2386 C.3     1  UNL1        0.0721
     19 N         137.9885  140.4884  163.1962 N.3     1  UNL1       -0.2727
     20 C         138.2649  138.2241  161.9524 C.3     1  UNL1        0.0188
     21 C         137.7010  139.6129  162.0127 C.3     1  UNL1        0.0721
     22 C         138.8074  139.9618  164.3374 C.3     1  UNL1        0.0721
     23 C         138.1310  139.4843  165.5882 C.3     1  UNL1        0.0188
@<TRIPOS>BOND
     1    20    21    1
     2    21    19    1
     3    19    22    1
     4    22    23    1
     5    19    18    1
     6    18    17    1
     7    17    16    1
     8    16    14    1
     9    14    15    1
    10    14     1    1
    11     1     3    1
    12     3     4   ar
    13     4     5   ar
    14     5     6   ar
    15     6     7   ar
    16     7     8   ar
    17     8     9   ar
    18     9    10    1
    19     9    11   ar
    20    11    12   ar
    21    12    13   ar
    22    13     3   ar
    23    13     7   ar
    24     1     2    1
@<TRIPOS>MOLECULE
*****
 23 24 0 0 0
SMALL
GASTEIGER

@<TRIPOS>ATOM
      1 N         137.0828  140.9626  162.9296 N.pl3   1  UNL1       -0.3340
      2 H         136.1323  140.8757  163.1709 H       1  UNL1        0.1468
      3 C         137.9802  141.8611  163.7278 C.ar    1  UNL1        0.0476
      4 C         138.2512  143.2597  163.2583 C.ar    1  UNL1        0.0350
      5 C         139.1486  144.1582  164.0565 C.ar    1  UNL1        0.1001
      6 N         139.7751  143.6582  165.3244 N.ar    1  UNL1       -0.2437
      7 C         139.5041  142.2596  165.7940 C.ar    1  UNL1        0.0833
      8 C         140.1306  141.7596  167.0619 C.ar    1  UNL1        0.0305
      9 C         139.8597  140.3610  167.5314 C.ar    1  UNL1        0.0592
     10 CL        140.4861  139.8609  168.7993 Cl      1  UNL1       -0.0822
     11 C         138.9622  139.4624  166.7332 C.ar    1  UNL1        0.0115
     12 C         138.3358  139.9625  165.4653 C.ar    1  UNL1        0.0036
     13 C         138.6067  141.3611  164.9957 C.ar    1  UNL1        0.0309
     14 C         137.6335  140.1963  161.7636 C.3     1  UNL1        0.0691
     15 C         138.1325  140.9285  160.5533 C.3     1  UNL1        0.0212
     16 C         137.6853  138.6978  161.8080 C.3     1  UNL1        0.0209
     17 C         138.8855  138.0055  162.3826 C.3     1  UNL1        0.0190
     18 C         140.2325  138.1893  161.7485 C.3     1  UNL1        0.0721
     19 N         141.4683  137.7376  162.4686 N.3     1  UNL1       -0.2727
     20 C         143.7177  138.9709  162.0572 C.3     1  UNL1        0.0188
     21 C         142.8028  137.8131  161.7879 C.3     1  UNL1        0.0721
     22 C         141.3697  137.2104  163.8694 C.3     1  UNL1        0.0721
     23 C         141.8549  138.0419  165.0197 C.3     1  UNL1        0.0188
@<TRIPOS>BOND
     1    20    21    1
     2    21    19    1
     3    19    22    1
     4    22    23    1
     5    19    18    1
     6    18    17    1
     7    17    16    1
     8    16    14    1
     9    14    15    1
    10    14     1    1
    11     1     3    1
    12     3     4   ar
    13     4     5   ar
    14     5     6   ar
    15     6     7   ar
    16     7     8   ar
    17     8     9   ar
    18     9    10    1
    19     9    11   ar
    20    11    12   ar
    21    12    13   ar
    22    13     3   ar
    23    13     7   ar
    24     1     2    1
@<TRIPOS>MOLECULE
*****
 23 24 0 0 0
SMALL
GASTEIGER

@<TRIPOS>ATOM
      1 N         137.6030  140.9120  164.0597 N.pl3   1  UNL1       -0.3340
      2 H         136.8823  140.7082  164.6986 H       1  UNL1        0.1468
      3 C         138.4403  139.8031  163.4946 C.ar    1  UNL1        0.0476
      4 C         138.0185  139.1142  162.2308 C.ar    1  UNL1        0.0350
      5 C         138.8558  138.0052  161.6657 C.ar    1  UNL1        0.1001
      6 N         140.1148  137.5852  162.3646 N.ar    1  UNL1       -0.2437
      7 C         140.5366  138.2742  163.6285 C.ar    1  UNL1        0.0833
      8 C         141.7956  137.8542  164.3274 C.ar    1  UNL1        0.0305
      9 C         142.2174  138.5431  165.5913 C.ar    1  UNL1        0.0592
     10 CL        143.4765  138.1231  166.2902 Cl      1  UNL1       -0.0822
     11 C         141.3801  139.6521  166.1563 C.ar    1  UNL1        0.0115
     12 C         140.1211  140.0721  165.4574 C.ar    1  UNL1        0.0036
     13 C         139.6993  139.3831  164.1935 C.ar    1  UNL1        0.0309
     14 C         137.8638  142.3316  163.6512 C.3     1  UNL1        0.0691
     15 C         137.8565  142.7076  162.1991 C.3     1  UNL1        0.0212
     16 C         138.1319  143.3752  164.6948 C.3     1  UNL1        0.0209
     17 C         139.5382  143.6459  165.1408 C.3     1  UNL1        0.0190
     18 C         140.4552  144.4606  164.2773 C.3     1  UNL1        0.0721
     19 N         141.6729  143.8284  163.6712 N.3     1  UNL1       -0.2727
     20 C         141.4469  141.7072  162.1881 C.3     1  UNL1        0.0188
     21 C         141.5921  143.1949  162.3140 C.3     1  UNL1        0.0721
     22 C         142.9714  143.8298  164.4222 C.3     1  UNL1        0.0721
     23 C         143.3344  142.6650  165.2947 C.3     1  UNL1        0.0188
@<TRIPOS>BOND
     1    20    21    1
     2    21    19    1
     3    19    22    1
     4    22    23    1
     5    19    18    1
     6    18    17    1
     7    17    16    1
     8    16    14    1
     9    14    15    1
    10    14     1    1
    11     1     3    1
    12     3     4   ar
    13     4     5   ar
    14     5     6   ar
    15     6     7   ar
    16     7     8   ar
    17     8     9   ar
    18     9    10    1
    19     9    11   ar
    20    11    12   ar
    21    12    13   ar
    22    13     3   ar
    23    13     7   ar
    24     1     2    1
@<TRIPOS>MOLECULE
*****
 23 24 0 0 0
SMALL
GASTEIGER

@<TRIPOS>ATOM
      1 N         141.3624  141.8401  166.9991 N.pl3   1  UNL1       -0.3340
      2 H         140.7829  142.2897  167.6558 H       1  UNL1        0.1468
      3 C         142.1775  142.6530  166.0375 C.ar    1  UNL1        0.0476
      4 C         143.6756  142.6026  166.0947 C.ar    1  UNL1        0.0350
      5 C         144.4907  143.4155  165.1331 C.ar    1  UNL1        0.1001
      6 N         143.8077  144.2789  164.1142 N.ar    1  UNL1       -0.2437
      7 C         142.3097  144.3294  164.0570 C.ar    1  UNL1        0.0833
      8 C         141.6267  145.1928  163.0381 C.ar    1  UNL1        0.0305
      9 C         140.1287  145.2433  162.9809 C.ar    1  UNL1        0.0592
     10 CL        139.4457  146.1067  161.9620 Cl      1  UNL1       -0.0822
     11 C         139.3136  144.4303  163.9425 C.ar    1  UNL1        0.0115
     12 C         139.9965  143.5669  164.9614 C.ar    1  UNL1        0.0036
     13 C         141.4946  143.5164  165.0186 C.ar    1  UNL1        0.0309
     14 C         141.4303  140.3422  166.9602 C.3     1  UNL1        0.0691
     15 C         140.3139  139.5566  166.3385 C.3     1  UNL1        0.0212
     16 C         142.6147  139.6297  167.5431 C.3     1  UNL1        0.0209
     17 C         142.5339  139.0440  168.9217 C.3     1  UNL1        0.0190
     18 C         142.6393  139.9362  170.1230 C.3     1  UNL1        0.0721
     19 N         141.4639  140.7664  170.5461 N.3     1  UNL1       -0.2727
     20 C         142.8106  142.9583  170.1829 C.3     1  UNL1        0.0188
     21 C         141.6265  142.2418  170.7615 C.3     1  UNL1        0.0721
     22 C         140.1258  140.1211  170.7538 C.3     1  UNL1        0.0721
     23 C         138.9861  140.4450  169.8340 C.3     1  UNL1        0.0188
@<TRIPOS>BOND
     1    20    21    1
     2    21    19    1
     3    19    22    1
     4    22    23    1
     5    19    18    1
     6    18    17    1
     7    17    16    1
     8    16    14    1
     9    14    15    1
    10    14     1    1
    11     1     3    1
    12     3     4   ar
    13     4     5   ar
    14     5     6   ar
    15     6     7   ar
    16     7     8   ar
    17     8     9   ar
    18     9    10    1
    19     9    11   ar
    20    11    12   ar
    21    12    13   ar
    22    13     3   ar
    23    13     7   ar
    24     1     2    1
@<TRIPOS>MOLECULE
*****
 23 24 0 0 0
SMALL
GASTEIGER

@<TRIPOS>ATOM
      1 N         138.8959  137.4853  165.2624 N.pl3   1  UNL1       -0.3340
      2 H         138.8917  136.5552  165.5851 H       1  UNL1        0.1468
      3 C         139.6309  137.8392  164.0037 C.ar    1  UNL1        0.0476
      4 C         138.9319  137.7584  162.6790 C.ar    1  UNL1        0.0350
      5 C         139.6670  138.1122  161.4202 C.ar    1  UNL1        0.1001
      6 N         141.1011  138.5468  161.4862 N.ar    1  UNL1       -0.2437
      7 C         141.8001  138.6276  162.8108 C.ar    1  UNL1        0.0833
      8 C         143.2343  139.0622  162.8768 C.ar    1  UNL1        0.0305
      9 C         143.9334  139.1430  164.2015 C.ar    1  UNL1        0.0592
     10 CL        145.3675  139.5776  164.2674 Cl      1  UNL1       -0.0822
     11 C         143.1983  138.7892  165.4602 C.ar    1  UNL1        0.0115
     12 C         141.7642  138.3546  165.3943 C.ar    1  UNL1        0.0036
     13 C         141.0651  138.2738  164.0696 C.ar    1  UNL1        0.0309
     14 C         138.1671  138.5485  166.0294 C.3     1  UNL1        0.0691
     15 C         137.3750  138.1833  167.2498 C.3     1  UNL1        0.0212
     16 C         138.2303  139.9771  165.5761 C.3     1  UNL1        0.0209
     17 C         139.3044  140.8834  166.1002 C.3     1  UNL1        0.0190
     18 C         139.6478  142.1439  165.3632 C.3     1  UNL1        0.0721
     19 N         141.0827  142.5476  165.1957 N.3     1  UNL1       -0.2727
     20 C         141.0979  144.8214  163.9389 C.3     1  UNL1        0.0188
     21 C         141.4957  143.3771  164.0162 C.3     1  UNL1        0.0721
     22 C         142.1046  142.1218  166.2078 C.3     1  UNL1        0.0721
     23 C         143.5415  142.5159  166.0345 C.3     1  UNL1        0.0188
@<TRIPOS>BOND
     1    20    21    1
     2    21    19    1
     3    19    22    1
     4    22    23    1
     5    19    18    1
     6    18    17    1
     7    17    16    1
     8    16    14    1
     9    14    15    1
    10    14     1    1
    11     1     3    1
    12     3     4   ar
    13     4     5   ar
    14     5     6   ar
    15     6     7   ar
    16     7     8   ar
    17     8     9   ar
    18     9    10    1
    19     9    11   ar
    20    11    12   ar
    21    12    13   ar
    22    13     3   ar
    23    13     7   ar
    24     1     2    1
