@<TRIPOS>MOLECULE
*****
 34 37 0 0 0
SMALL
GASTEIGER

@<TRIPOS>ATOM
      1 C         140.2425  141.4632  164.9895 C.ar    1  UNL1        0.1633
      2 N         140.9569  140.5155  164.0722 N.ar    1  UNL1       -0.2122
      3 C         141.3502  140.9588  162.6942 C.ar    1  UNL1        0.1322
      4 C         141.0291  142.3497  162.2336 C.ar    1  UNL1        0.0482
      5 C         140.3146  143.2974  163.1509 C.ar    1  UNL1        0.0807
      6 N         139.9213  142.8541  164.5288 N.ar    1  UNL1       -0.2294
      7 C         140.1335  144.5974  162.4248 C.3     1  UNL1        0.1457
      8 C         139.4639  145.0324  163.6946 C.3     1  UNL1        0.0297
      9 C         139.8124  145.9883  161.9641 C.3     1  UNL1        0.0297
     10 S         140.7360  144.4532  161.0587 S.O2    1  UNL1       -0.0039
     11 O         140.2889  145.8742  160.8837 O.2     1  UNL1       -0.1724
     12 O         141.2450  144.6060  159.6561 O.2     1  UNL1       -0.1724
     13 C         141.2895  143.0640  160.9405 C.3     1  UNL1        0.1814
     14 N         142.0646  140.0111  161.7768 N.pl3   1  UNL1       -0.2900
     15 C         141.2941  139.2417  160.7452 C.3     1  UNL1        0.1242
     16 C         142.0085  138.2941  159.8279 C.3     1  UNL1        0.1636
     17 O         143.4935  138.1158  159.9421 O.3     1  UNL1       -0.3502
     18 C         144.2641  138.8853  160.9737 C.3     1  UNL1        0.1618
     19 C         143.5496  139.8329  161.8911 C.3     1  UNL1        0.1038
     20 C         144.3202  140.6024  162.9227 C.3     1  UNL1        0.0241
     21 C         139.0624  140.1334  169.1235 C.ar    1  UNL1        0.0516
     22 C         139.9586  141.3230  168.9455 C.ar    1  UNL1        0.0148
     23 C         140.3520  141.7663  167.5675 C.ar    1  UNL1        0.0043
     24 C         139.8491  141.0199  166.3675 C.ar    1  UNL1        0.0359
     25 C         138.9529  139.8303  166.5454 C.ar    1  UNL1        0.0043
     26 C         138.5595  139.3871  167.9233 C.ar    1  UNL1        0.0148
     27 N         137.0621  138.3866  172.0726 N.am    1  UNL1       -0.2887
     28 C         137.4555  138.8300  170.6946 C.2     1  UNL1        0.3045
     29 O         136.6353  138.4131  169.5099 O.2     1  UNL1       -0.2525
     30 N         138.6691  139.6901  170.5014 N.am    1  UNL1       -0.2683
     31 H         137.6004  138.6603  172.8502 H       1  UNL1        0.1510
     32 H         139.2074  139.9638  171.2789 H       1  UNL1        0.1564
     33 C         135.8499  136.4519  173.3123 C.3     1  UNL1        0.0230
     34 C         135.8486  137.5265  172.2658 C.3     1  UNL1        0.0910
@<TRIPOS>BOND
     1    33    34    1
     2    34    27    1
     3    27    28   am
     4    28    29    2
     5    28    30   am
     6    30    21    1
     7    21    22   ar
     8    22    23   ar
     9    23    24   ar
    10    24     1    1
    11     1     2   ar
    12     2     3   ar
    13     3    14    1
    14    14    15    1
    15    15    16    1
    16    16    17    1
    17    17    18    1
    18    18    19    1
    19    19    20    1
    20     3     4   ar
    21     4     5   ar
    22     5     6   ar
    23     5     7    1
    24     7     8    1
    25     7     9    1
    26     7    10    1
    27    10    11    2
    28    10    12    2
    29    10    13    1
    30    24    25   ar
    31    25    26   ar
    32    26    21   ar
    33     6     1   ar
    34    19    14    1
    35    13     4    1
    36    27    31    1
    37    30    32    1
@<TRIPOS>MOLECULE
*****
 34 37 0 0 0
SMALL
GASTEIGER

@<TRIPOS>ATOM
      1 C         141.3190  140.4069  165.1918 C.ar    1  UNL1        0.1633
      2 N         141.9656  139.8768  163.9465 N.ar    1  UNL1       -0.2122
      3 C         141.5556  140.4070  162.6046 C.ar    1  UNL1        0.1322
      4 C         140.4989  141.4673  162.5080 C.ar    1  UNL1        0.0482
      5 C         139.8523  141.9974  163.7532 C.ar    1  UNL1        0.0807
      6 N         140.2623  141.4672  165.0952 N.ar    1  UNL1       -0.2294
      7 C         138.8471  143.0344  163.3481 C.3     1  UNL1        0.1457
      8 C         138.6008  143.1452  164.8236 C.3     1  UNL1        0.0297
      9 C         137.7905  144.0947  163.2515 C.3     1  UNL1        0.0297
     10 S         138.8726  143.1453  161.8524 S.O2    1  UNL1       -0.0039
     11 O         137.8106  144.1824  162.0685 O.2     1  UNL1       -0.1724
     12 O         138.6760  143.4730  160.4020 O.2     1  UNL1       -0.1724
     13 C         139.8934  142.1767  161.3331 C.3     1  UNL1        0.1814
     14 N         142.2022  139.8769  161.3592 N.pl3   1  UNL1       -0.2900
     15 C         141.7050  138.6048  160.7391 C.3     1  UNL1        0.1242
     16 C         142.3515  138.0747  159.4938 C.3     1  UNL1        0.1636
     17 O         143.4955  138.8167  158.8685 O.3     1  UNL1       -0.3502
     18 C         143.9928  140.0888  159.4885 C.3     1  UNL1        0.1618
     19 C         143.3461  140.6189  160.7339 C.3     1  UNL1        0.1038
     20 C         143.8434  141.8910  161.3540 C.3     1  UNL1        0.0241
     21 C         142.5490  138.8165  169.2177 C.ar    1  UNL1        0.0516
     22 C         141.3614  139.7254  169.1013 C.ar    1  UNL1        0.0148
     23 C         140.9514  140.2555  167.7593 C.ar    1  UNL1        0.0043
     24 C         141.7290  139.8768  166.5338 C.ar    1  UNL1        0.0359
     25 C         142.9165  138.9679  166.6502 C.ar    1  UNL1        0.0043
     26 C         143.3266  138.4377  167.9921 C.ar    1  UNL1        0.0148
     27 N         144.3326  136.6102  171.9927 N.am    1  UNL1       -0.2887
     28 C         143.9225  137.1404  170.6508 C.2     1  UNL1        0.3045
     29 O         144.4761  136.5246  169.4000 O.2     1  UNL1       -0.2525
     30 N         142.9590  138.2863  170.5596 N.am    1  UNL1       -0.2683
     31 H         143.9693  137.0143  172.8137 H       1  UNL1        0.1510
     32 H         142.5957  138.6905  171.3805 H       1  UNL1        0.1564
     33 C         146.6866  135.6926  172.5981 C.3     1  UNL1        0.0230
     34 C         145.2962  135.4642  172.0839 C.3     1  UNL1        0.0910
@<TRIPOS>BOND
     1    33    34    1
     2    34    27    1
     3    27    28   am
     4    28    29    2
     5    28    30   am
     6    30    21    1
     7    21    22   ar
     8    22    23   ar
     9    23    24   ar
    10    24     1    1
    11     1     2   ar
    12     2     3   ar
    13     3    14    1
    14    14    15    1
    15    15    16    1
    16    16    17    1
    17    17    18    1
    18    18    19    1
    19    19    20    1
    20     3     4   ar
    21     4     5   ar
    22     5     6   ar
    23     5     7    1
    24     7     8    1
    25     7     9    1
    26     7    10    1
    27    10    11    2
    28    10    12    2
    29    10    13    1
    30    24    25   ar
    31    25    26   ar
    32    26    21   ar
    33     6     1   ar
    34    19    14    1
    35    13     4    1
    36    27    31    1
    37    30    32    1
@<TRIPOS>MOLECULE
*****
 34 37 0 0 0
SMALL
GASTEIGER

@<TRIPOS>ATOM
      1 C         143.2168  141.8355  160.9640 C.ar    1  UNL1        0.1633
      2 N         144.2121  141.5012  159.8928 N.ar    1  UNL1       -0.2122
      3 C         144.1805  142.2343  158.5845 C.ar    1  UNL1        0.1322
      4 C         143.1535  143.3016  158.3475 C.ar    1  UNL1        0.0482
      5 C         142.1582  143.6358  159.4187 C.ar    1  UNL1        0.0807
      6 N         142.1898  142.9028  160.7269 N.ar    1  UNL1       -0.2294
      7 C         141.2694  144.7277  158.9011 C.3     1  UNL1        0.1457
      8 C         140.6087  144.6103  160.2427 C.3     1  UNL1        0.0297
      9 C         140.2424  145.7950  158.6641 C.3     1  UNL1        0.0297
     10 S         141.7154  145.0683  157.5101 S.O2    1  UNL1       -0.0039
     11 O         140.5952  146.0644  157.5638 O.2     1  UNL1       -0.1724
     12 O         141.9273  145.6170  156.1303 O.2     1  UNL1       -0.1724
     13 C         142.8799  144.1869  157.1678 C.3     1  UNL1        0.1814
     14 N         145.1759  141.9000  157.5133 N.pl3   1  UNL1       -0.2900
     15 C         146.4558  142.6754  157.4104 C.3     1  UNL1        0.1242
     16 C         147.4511  142.3413  156.3392 C.3     1  UNL1        0.1636
     17 O         147.1666  141.2316  155.3708 O.3     1  UNL1       -0.3502
     18 C         145.8867  140.4562  155.4736 C.3     1  UNL1        0.1618
     19 C         144.8913  140.7904  156.5449 C.3     1  UNL1        0.1038
     20 C         143.6114  140.0150  156.6477 C.3     1  UNL1        0.0241
     21 C         143.3114  139.6363  164.8889 C.ar    1  UNL1        0.0516
     22 C         144.5828  140.1669  164.2957 C.ar    1  UNL1        0.0148
     23 C         144.5513  140.9000  162.9874 C.ar    1  UNL1        0.0043
     24 C         143.2483  141.1024  162.2723 C.ar    1  UNL1        0.0359
     25 C         141.9769  140.5717  162.8655 C.ar    1  UNL1        0.0043
     26 C         142.0084  139.8387  164.1738 C.ar    1  UNL1        0.0148
     27 N         142.9231  138.8563  168.7607 N.am    1  UNL1       -0.2887
     28 C         142.8916  139.5893  167.4524 C.2     1  UNL1        0.3045
     29 O         142.4088  141.0085  167.3993 O.2     1  UNL1       -0.2525
     30 N         143.3429  138.9032  166.1972 N.am    1  UNL1       -0.2683
     31 H         143.2400  137.9249  168.7956 H       1  UNL1        0.1510
     32 H         143.6598  137.9718  166.2321 H       1  UNL1        0.1564
     33 C         141.0075  139.7174  170.2899 C.3     1  UNL1        0.0230
     34 C         142.4718  139.5424  170.0159 C.3     1  UNL1        0.0910
@<TRIPOS>BOND
     1    33    34    1
     2    34    27    1
     3    27    28   am
     4    28    29    2
     5    28    30   am
     6    30    21    1
     7    21    22   ar
     8    22    23   ar
     9    23    24   ar
    10    24     1    1
    11     1     2   ar
    12     2     3   ar
    13     3    14    1
    14    14    15    1
    15    15    16    1
    16    16    17    1
    17    17    18    1
    18    18    19    1
    19    19    20    1
    20     3     4   ar
    21     4     5   ar
    22     5     6   ar
    23     5     7    1
    24     7     8    1
    25     7     9    1
    26     7    10    1
    27    10    11    2
    28    10    12    2
    29    10    13    1
    30    24    25   ar
    31    25    26   ar
    32    26    21   ar
    33     6     1   ar
    34    19    14    1
    35    13     4    1
    36    27    31    1
    37    30    32    1
@<TRIPOS>MOLECULE
*****
 34 37 0 0 0
SMALL
GASTEIGER

@<TRIPOS>ATOM
      1 C         141.4225  142.2212  164.7916 C.ar    1  UNL1        0.1633
      2 N         140.4298  141.1006  164.8851 N.ar    1  UNL1       -0.2122
      3 C         140.3437  140.2774  166.1360 C.ar    1  UNL1        0.1322
      4 C         141.2503  140.5747  167.2934 C.ar    1  UNL1        0.0482
      5 C         142.2430  141.6953  167.2000 C.ar    1  UNL1        0.0807
      6 N         142.3291  142.5185  165.9491 N.ar    1  UNL1       -0.2294
      7 C         143.0003  141.7527  168.4935 C.3     1  UNL1        0.1457
      8 C         143.7146  142.8999  167.8425 C.3     1  UNL1        0.0297
      9 C         143.9069  142.0500  169.6509 C.3     1  UNL1        0.0297
     10 S         142.4756  140.6676  169.3864 S.O2    1  UNL1       -0.0039
     11 O         143.4919  141.1918  170.3572 O.2     1  UNL1       -0.1724
     12 O         142.1634  139.6922  170.4822 O.2     1  UNL1       -0.1724
     13 C         141.3940  139.9396  168.6448 C.3     1  UNL1        0.1814
     14 N         139.3509  139.1567  166.2296 N.pl3   1  UNL1       -0.2900
     15 C         138.2553  139.2088  167.2527 C.3     1  UNL1        0.1242
     16 C         137.2626  138.0883  167.3463 C.3     1  UNL1        0.1636
     17 O         137.3654  136.9156  166.4166 O.3     1  UNL1       -0.3502
     18 C         138.4610  136.8635  165.3935 C.3     1  UNL1        0.1618
     19 C         139.4538  137.9841  165.2999 C.3     1  UNL1        0.1038
     20 C         140.5494  137.9320  164.2767 C.3     1  UNL1        0.0241
     21 C         141.6810  144.6910  161.0388 C.ar    1  UNL1        0.0516
     22 C         140.9866  145.2384  162.2506 C.ar    1  UNL1        0.0148
     23 C         140.9005  144.4151  163.5015 C.ar    1  UNL1        0.0043
     24 C         141.5086  143.0445  163.5407 C.ar    1  UNL1        0.0359
     25 C         142.2030  142.4971  162.3289 C.ar    1  UNL1        0.0043
     26 C         142.2891  143.3204  161.0780 C.ar    1  UNL1        0.0148
     27 N         140.7719  146.2440  157.5016 N.am    1  UNL1       -0.2887
     28 C         140.6858  145.4207  158.7526 C.2     1  UNL1        0.3045
     29 O         139.5183  144.5040  158.9682 O.2     1  UNL1       -0.2525
     30 N         141.7671  145.5143  159.7879 N.am    1  UNL1       -0.2683
     31 H         141.5382  146.8457  157.3601 H       1  UNL1        0.1510
     32 H         142.5334  146.1160  159.6464 H       1  UNL1        0.1564
     33 C         139.0983  147.4002  155.8855 C.3     1  UNL1        0.0230
     34 C         139.6906  146.1505  156.4663 C.3     1  UNL1        0.0910
@<TRIPOS>BOND
     1    33    34    1
     2    34    27    1
     3    27    28   am
     4    28    29    2
     5    28    30   am
     6    30    21    1
     7    21    22   ar
     8    22    23   ar
     9    23    24   ar
    10    24     1    1
    11     1     2   ar
    12     2     3   ar
    13     3    14    1
    14    14    15    1
    15    15    16    1
    16    16    17    1
    17    17    18    1
    18    18    19    1
    19    19    20    1
    20     3     4   ar
    21     4     5   ar
    22     5     6   ar
    23     5     7    1
    24     7     8    1
    25     7     9    1
    26     7    10    1
    27    10    11    2
    28    10    12    2
    29    10    13    1
    30    24    25   ar
    31    25    26   ar
    32    26    21   ar
    33     6     1   ar
    34    19    14    1
    35    13     4    1
    36    27    31    1
    37    30    32    1
@<TRIPOS>MOLECULE
*****
 34 37 0 0 0
SMALL
GASTEIGER

@<TRIPOS>ATOM
      1 C         141.8211  141.7151  163.8416 C.ar    1  UNL1        0.1633
      2 N         142.3457  140.9952  162.6348 N.ar    1  UNL1       -0.2122
      3 C         142.1634  141.5887  161.2694 C.ar    1  UNL1        0.1322
      4 C         141.4565  142.9022  161.1108 C.ar    1  UNL1        0.0482
      5 C         140.9319  143.6221  162.3176 C.ar    1  UNL1        0.0807
      6 N         141.1143  143.0285  163.6830 N.ar    1  UNL1       -0.2294
      7 C         140.2816  144.8916  161.8537 C.3     1  UNL1        0.1457
      8 C         140.0112  145.1015  163.3142 C.3     1  UNL1        0.0297
      9 C         139.5747  146.2051  161.6952 C.3     1  UNL1        0.0297
     10 S         140.4042  144.9564  160.3601 S.O2    1  UNL1       -0.0039
     11 O         139.6717  146.2563  160.5138 O.2     1  UNL1       -0.1724
     12 O         140.3737  145.2929  158.8988 O.2     1  UNL1       -0.1724
     13 C         141.1303  143.7268  159.9009 C.3     1  UNL1        0.1814
     14 N         142.6880  140.8688  160.0624 N.pl3   1  UNL1       -0.2900
     15 C         143.8953  141.3925  159.3427 C.3     1  UNL1        0.1242
     16 C         144.4199  140.6727  158.1358 C.3     1  UNL1        0.1636
     17 O         143.7371  139.4291  157.6486 O.3     1  UNL1       -0.3502
     18 C         142.5298  138.9053  158.3684 C.3     1  UNL1        0.1618
     19 C         142.0052  139.6252  159.5753 C.3     1  UNL1        0.1038
     20 C         140.7979  139.1015  160.2951 C.3     1  UNL1        0.0241
     21 C         142.3680  139.9344  167.9381 C.ar    1  UNL1        0.0516
     22 C         142.9627  141.2735  167.6169 C.ar    1  UNL1        0.0148
     23 C         142.7804  141.8671  166.2514 C.ar    1  UNL1        0.0043
     24 C         142.0035  141.1215  165.2071 C.ar    1  UNL1        0.0359
     25 C         141.4088  139.7824  165.5283 C.ar    1  UNL1        0.0043
     26 C         141.5911  139.1888  166.8937 C.ar    1  UNL1        0.0148
     27 N         143.5333  137.4903  170.8396 N.am    1  UNL1       -0.2887
     28 C         143.3509  138.0840  169.4741 C.2     1  UNL1        0.3045
     29 O         143.9693  137.4206  168.2792 O.2     1  UNL1       -0.2525
     30 N         142.5503  139.3409  169.3035 N.am    1  UNL1       -0.2683
     31 H         143.1274  137.9257  171.6238 H       1  UNL1        0.1510
     32 H         142.1445  139.7762  170.0877 H       1  UNL1        0.1564
     33 C         145.5654  136.2391  171.8664 C.3     1  UNL1        0.0230
     34 C         144.3339  136.2334  171.0101 C.3     1  UNL1        0.0910
@<TRIPOS>BOND
     1    33    34    1
     2    34    27    1
     3    27    28   am
     4    28    29    2
     5    28    30   am
     6    30    21    1
     7    21    22   ar
     8    22    23   ar
     9    23    24   ar
    10    24     1    1
    11     1     2   ar
    12     2     3   ar
    13     3    14    1
    14    14    15    1
    15    15    16    1
    16    16    17    1
    17    17    18    1
    18    18    19    1
    19    19    20    1
    20     3     4   ar
    21     4     5   ar
    22     5     6   ar
    23     5     7    1
    24     7     8    1
    25     7     9    1
    26     7    10    1
    27    10    11    2
    28    10    12    2
    29    10    13    1
    30    24    25   ar
    31    25    26   ar
    32    26    21   ar
    33     6     1   ar
    34    19    14    1
    35    13     4    1
    36    27    31    1
    37    30    32    1
@<TRIPOS>MOLECULE
*****
 34 37 0 0 0
SMALL
GASTEIGER

@<TRIPOS>ATOM
      1 C         140.9973  139.4655  161.3602 C.ar    1  UNL1        0.1633
      2 N         141.7251  140.7183  161.7481 N.ar    1  UNL1       -0.2122
      3 C         141.5873  141.2660  163.1377 C.ar    1  UNL1        0.1322
      4 C         140.7216  140.5608  164.1393 C.ar    1  UNL1        0.0482
      5 C         139.9938  139.3079  163.7514 C.ar    1  UNL1        0.0807
      6 N         140.1317  138.7602  162.3618 N.ar    1  UNL1       -0.2294
      7 C         139.2179  138.8343  164.9446 C.3     1  UNL1        0.1457
      8 C         138.7887  137.7267  164.0286 C.3     1  UNL1        0.0297
      9 C         138.3522  138.1291  165.9462 C.3     1  UNL1        0.0297
     10 S         139.4662  139.7945  166.0699 S.O2    1  UNL1       -0.0039
     11 O         138.5486  138.8885  166.8363 O.2     1  UNL1       -0.1724
     12 O         139.5226  140.5652  167.3554 O.2     1  UNL1       -0.1724
     13 C         140.3955  140.8616  165.5723 C.3     1  UNL1        0.1814
     14 N         142.3151  142.5190  163.5257 N.pl3   1  UNL1       -0.2900
     15 C         141.6853  143.8583  163.2815 C.3     1  UNL1        0.1242
     16 C         142.4130  145.1112  163.6694 C.3     1  UNL1        0.1636
     17 O         143.7706  145.0248  164.3016 O.3     1  UNL1       -0.3502
     18 C         144.4004  143.6855  164.5458 C.3     1  UNL1        0.1618
     19 C         143.6726  142.4326  164.1579 C.3     1  UNL1        0.1038
     20 C         144.3023  141.0933  164.4021 C.3     1  UNL1        0.0241
     21 C         141.4108  137.8222  157.1913 C.ar    1  UNL1        0.0516
     22 C         142.6346  138.0973  158.0138 C.ar    1  UNL1        0.0148
     23 C         142.4968  138.6450  159.4035 C.ar    1  UNL1        0.0043
     24 C         141.1352  138.9177  159.9705 C.ar    1  UNL1        0.0359
     25 C         139.9113  138.6427  159.1480 C.ar    1  UNL1        0.0043
     26 C         140.0491  138.0949  157.7584 C.ar    1  UNL1        0.0148
     27 N         142.1399  135.3121  154.2051 N.am    1  UNL1       -0.2887
     28 C         142.0021  135.8598  155.5948 C.2     1  UNL1        0.3045
     29 O         142.3179  134.9929  156.7774 O.2     1  UNL1       -0.2525
     30 N         141.5486  137.2745  155.8017 N.am    1  UNL1       -0.2683
     31 H         141.9327  135.8811  153.4289 H       1  UNL1        0.1510
     32 H         141.3413  137.8436  155.0255 H       1  UNL1        0.1564
     33 C         141.5895  132.7832  153.9787 C.3     1  UNL1        0.0230
     34 C         142.5935  133.8974  153.9982 C.3     1  UNL1        0.0910
@<TRIPOS>BOND
     1    33    34    1
     2    34    27    1
     3    27    28   am
     4    28    29    2
     5    28    30   am
     6    30    21    1
     7    21    22   ar
     8    22    23   ar
     9    23    24   ar
    10    24     1    1
    11     1     2   ar
    12     2     3   ar
    13     3    14    1
    14    14    15    1
    15    15    16    1
    16    16    17    1
    17    17    18    1
    18    18    19    1
    19    19    20    1
    20     3     4   ar
    21     4     5   ar
    22     5     6   ar
    23     5     7    1
    24     7     8    1
    25     7     9    1
    26     7    10    1
    27    10    11    2
    28    10    12    2
    29    10    13    1
    30    24    25   ar
    31    25    26   ar
    32    26    21   ar
    33     6     1   ar
    34    19    14    1
    35    13     4    1
    36    27    31    1
    37    30    32    1
@<TRIPOS>MOLECULE
*****
 34 37 0 0 0
SMALL
GASTEIGER

@<TRIPOS>ATOM
      1 C         143.2449  139.0487  160.3177 C.ar    1  UNL1        0.1633
      2 N         142.6908  137.9642  159.4419 N.ar    1  UNL1       -0.2122
      3 C         142.7097  138.1217  157.9504 C.ar    1  UNL1        0.1322
      4 C         143.2827  139.3637  157.3345 C.ar    1  UNL1        0.0482
      5 C         143.8368  140.4481  158.2103 C.ar    1  UNL1        0.0807
      6 N         143.8179  140.2906  159.7018 N.ar    1  UNL1       -0.2294
      7 C         144.3331  141.5516  157.3237 C.3     1  UNL1        0.1457
      8 C         144.7003  142.2137  158.6186 C.3     1  UNL1        0.0297
      9 C         144.9061  142.7935  156.7079 C.3     1  UNL1        0.0297
     10 S         144.0856  141.1492  155.9000 S.O2    1  UNL1       -0.0039
     11 O         144.7104  142.4752  155.5818 O.2     1  UNL1       -0.1724
     12 O         143.9688  141.0240  154.4099 O.2     1  UNL1       -0.1724
     13 C         143.4365  139.7970  155.9067 C.3     1  UNL1        0.1814
     14 N         142.1556  137.0373  157.0746 N.pl3   1  UNL1       -0.2900
     15 C         142.9543  135.7921  156.8265 C.3     1  UNL1        0.1242
     16 C         142.4003  134.7077  155.9507 C.3     1  UNL1        0.1636
     17 O         141.0474  134.8684  155.3230 O.3     1  UNL1       -0.3502
     18 C         140.2486  136.1136  155.5711 C.3     1  UNL1        0.1618
     19 C         140.8028  137.1980  156.4469 C.3     1  UNL1        0.1038
     20 C         140.0040  138.4432  156.6949 C.3     1  UNL1        0.0241
     21 C         143.1882  138.5763  164.7925 C.ar    1  UNL1        0.0516
     22 C         142.0739  138.0086  163.9643 C.ar    1  UNL1        0.0148
     23 C         142.0928  138.1661  162.4726 C.ar    1  UNL1        0.0043
     24 C         143.2260  138.8912  161.8093 C.ar    1  UNL1        0.0359
     25 C         144.3403  139.4588  162.6375 C.ar    1  UNL1        0.0043
     26 C         144.3215  139.3014  164.1291 C.ar    1  UNL1        0.0148
     27 N         142.7851  139.4256  168.6482 N.am    1  UNL1       -0.2887
     28 C         142.8040  139.5830  167.1565 C.2     1  UNL1        0.3045
     29 O         142.4574  140.9046  166.5374 O.2     1  UNL1       -0.2525
     30 N         143.1694  138.4188  166.2841 N.am    1  UNL1       -0.2683
     31 H         143.0126  138.5582  169.0545 H       1  UNL1        0.1510
     32 H         143.3969  137.5514  166.6904 H       1  UNL1        0.1564
     33 C         143.4080  141.6946  169.7497 C.3     1  UNL1        0.0230
     34 C         142.4197  140.5897  169.5206 C.3     1  UNL1        0.0910
@<TRIPOS>BOND
     1    33    34    1
     2    34    27    1
     3    27    28   am
     4    28    29    2
     5    28    30   am
     6    30    21    1
     7    21    22   ar
     8    22    23   ar
     9    23    24   ar
    10    24     1    1
    11     1     2   ar
    12     2     3   ar
    13     3    14    1
    14    14    15    1
    15    15    16    1
    16    16    17    1
    17    17    18    1
    18    18    19    1
    19    19    20    1
    20     3     4   ar
    21     4     5   ar
    22     5     6   ar
    23     5     7    1
    24     7     8    1
    25     7     9    1
    26     7    10    1
    27    10    11    2
    28    10    12    2
    29    10    13    1
    30    24    25   ar
    31    25    26   ar
    32    26    21   ar
    33     6     1   ar
    34    19    14    1
    35    13     4    1
    36    27    31    1
    37    30    32    1
@<TRIPOS>MOLECULE
*****
 34 37 0 0 0
SMALL
GASTEIGER

@<TRIPOS>ATOM
      1 C         139.2756  139.4858  160.2812 C.ar    1  UNL1        0.1633
      2 N         138.3705  140.2976  159.4028 N.ar    1  UNL1       -0.2122
      3 C         138.6451  140.3975  157.9316 C.ar    1  UNL1        0.1322
      4 C         139.8248  139.6857  157.3388 C.ar    1  UNL1        0.0482
      5 C         140.7300  138.8739  158.2172 C.ar    1  UNL1        0.0807
      6 N         140.4554  138.7740  159.6884 N.ar    1  UNL1       -0.2294
      7 C         141.8083  138.2871  157.3552 C.3     1  UNL1        0.1457
      8 C         142.2937  137.6892  158.6424 C.3     1  UNL1        0.0297
      9 C         142.9880  137.5753  156.7624 C.3     1  UNL1        0.0297
     10 S         141.5695  138.7362  155.9441 S.O2    1  UNL1       -0.0039
     11 O         142.7992  137.9305  155.6463 O.2     1  UNL1       -0.1724
     12 O         141.5878  139.0169  154.4708 O.2     1  UNL1       -0.1724
     13 C         140.3437  139.6006  155.9339 C.3     1  UNL1        0.1814
     14 N         137.7399  141.2094  157.0531 N.pl3   1  UNL1       -0.2900
     15 C         136.5405  140.5705  156.4179 C.3     1  UNL1        0.1242
     16 C         135.6354  141.3822  155.5395 C.3     1  UNL1        0.1636
     17 O         135.9295  142.8329  155.2962 O.3     1  UNL1       -0.3502
     18 C         137.1289  143.4717  155.9313 C.3     1  UNL1        0.1618
     19 C         138.0341  142.6599  156.8098 C.3     1  UNL1        0.1038
     20 C         139.2334  143.2988  157.4450 C.3     1  UNL1        0.0241
     21 C         138.4520  139.1858  164.6951 C.ar    1  UNL1        0.0516
     22 C         138.0704  140.4266  163.9436 C.ar    1  UNL1        0.0148
     23 C         138.3449  140.5266  162.4722 C.ar    1  UNL1        0.0043
     24 C         139.0011  139.3858  161.7525 C.ar    1  UNL1        0.0359
     25 C         139.3827  138.1450  162.5040 C.ar    1  UNL1        0.0043
     26 C         139.1081  138.0450  163.9753 C.ar    1  UNL1        0.0148
     27 N         138.8597  139.5906  168.6219 N.am    1  UNL1       -0.2887
     28 C         139.1342  139.6906  167.1506 C.2     1  UNL1        0.3045
     29 O         140.3655  140.3954  166.6636 O.2     1  UNL1       -0.2525
     30 N         138.1774  139.0858  166.1663 N.am    1  UNL1       -0.2683
     31 H         138.0515  139.1280  168.9415 H       1  UNL1        0.1510
     32 H         137.3693  138.6232  166.4859 H       1  UNL1        0.1564
     33 C         139.6799  141.6375  169.9956 C.3     1  UNL1        0.0230
     34 C         139.8164  140.1954  169.6061 C.3     1  UNL1        0.0910
@<TRIPOS>BOND
     1    33    34    1
     2    34    27    1
     3    27    28   am
     4    28    29    2
     5    28    30   am
     6    30    21    1
     7    21    22   ar
     8    22    23   ar
     9    23    24   ar
    10    24     1    1
    11     1     2   ar
    12     2     3   ar
    13     3    14    1
    14    14    15    1
    15    15    16    1
    16    16    17    1
    17    17    18    1
    18    18    19    1
    19    19    20    1
    20     3     4   ar
    21     4     5   ar
    22     5     6   ar
    23     5     7    1
    24     7     8    1
    25     7     9    1
    26     7    10    1
    27    10    11    2
    28    10    12    2
    29    10    13    1
    30    24    25   ar
    31    25    26   ar
    32    26    21   ar
    33     6     1   ar
    34    19    14    1
    35    13     4    1
    36    27    31    1
    37    30    32    1
@<TRIPOS>MOLECULE
*****
 34 37 0 0 0
SMALL
GASTEIGER

@<TRIPOS>ATOM
      1 C         140.1069  138.5673  157.6291 C.ar    1  UNL1        0.1633
      2 N         139.7416  139.8488  156.9406 N.ar    1  UNL1       -0.2122
      3 C         139.0708  140.9484  157.7093 C.ar    1  UNL1        0.1322
      4 C         138.7654  140.7664  159.1666 C.ar    1  UNL1        0.0482
      5 C         139.1307  139.4849  159.8551 C.ar    1  UNL1        0.0807
      6 N         139.8014  138.3853  159.0864 N.ar    1  UNL1       -0.2294
      7 C         138.7076  139.5927  161.2901 C.3     1  UNL1        0.1457
      8 C         139.2706  138.2064  161.3964 C.3     1  UNL1        0.0297
      9 C         138.4021  139.4108  162.7474 C.3     1  UNL1        0.0297
     10 S         138.0807  140.9410  161.4885 S.O2    1  UNL1       -0.0039
     11 O         137.9063  140.4771  162.9043 O.2     1  UNL1       -0.1724
     12 O         137.4174  142.1922  161.9828 O.2     1  UNL1       -0.1724
     13 C         138.1164  141.6664  160.1761 C.3     1  UNL1        0.1814
     14 N         138.7054  142.2300  157.0208 N.pl3   1  UNL1       -0.2900
     15 C         139.6907  143.3598  156.9670 C.3     1  UNL1        0.1242
     16 C         139.3254  144.6414  156.2785 C.3     1  UNL1        0.1636
     17 O         137.9748  144.7932  155.6438 O.3     1  UNL1       -0.3502
     18 C         136.9895  143.6635  155.6975 C.3     1  UNL1        0.1618
     19 C         137.3549  142.3818  156.3861 C.3     1  UNL1        0.1038
     20 C         136.3696  141.2521  156.4398 C.3     1  UNL1        0.0241
     21 C         142.1193  135.2683  155.3230 C.ar    1  UNL1        0.0516
     22 C         140.7272  135.6947  154.9619 C.ar    1  UNL1        0.0148
     23 C         140.0564  136.7943  155.7306 C.ar    1  UNL1        0.0043
     24 C         140.7777  137.4676  156.8604 C.ar    1  UNL1        0.0359
     25 C         142.1697  137.0413  157.2215 C.ar    1  UNL1        0.0043
     26 C         142.8405  135.9417  156.4529 C.ar    1  UNL1        0.0148
     27 N         143.5330  131.6865  154.3630 N.am    1  UNL1       -0.2887
     28 C         142.8622  132.7862  155.1316 C.2     1  UNL1        0.3045
     29 O         142.2635  132.5032  156.4775 O.2     1  UNL1       -0.2525
     30 N         142.7901  134.1687  154.5544 N.am    1  UNL1       -0.2683
     31 H         143.9259  131.8722  153.4796 H       1  UNL1        0.1510
     32 H         143.1830  134.3545  153.6710 H       1  UNL1        0.1564
     33 C         144.8041  129.8863  155.7388 C.3     1  UNL1        0.0230
     34 C         143.6051  130.3039  154.9402 C.3     1  UNL1        0.0910
@<TRIPOS>BOND
     1    33    34    1
     2    34    27    1
     3    27    28   am
     4    28    29    2
     5    28    30   am
     6    30    21    1
     7    21    22   ar
     8    22    23   ar
     9    23    24   ar
    10    24     1    1
    11     1     2   ar
    12     2     3   ar
    13     3    14    1
    14    14    15    1
    15    15    16    1
    16    16    17    1
    17    17    18    1
    18    18    19    1
    19    19    20    1
    20     3     4   ar
    21     4     5   ar
    22     5     6   ar
    23     5     7    1
    24     7     8    1
    25     7     9    1
    26     7    10    1
    27    10    11    2
    28    10    12    2
    29    10    13    1
    30    24    25   ar
    31    25    26   ar
    32    26    21   ar
    33     6     1   ar
    34    19    14    1
    35    13     4    1
    36    27    31    1
    37    30    32    1
