@<TRIPOS>MOLECULE
*****
 35 40 0 0 0
SMALL
GASTEIGER

@<TRIPOS>ATOM
      1 C         141.6065  139.9362  169.8219 C.3     1  UNL1        0.0178
      2 C         142.4550  138.9986  169.0151 C.3     1  UNL1        0.0095
      3 C         142.9993  139.4341  167.6869 C.3     1  UNL1        0.0692
      4 O         144.3325  137.2846  167.0936 O.2     1  UNL1       -0.2913
      5 C         143.4298  138.4090  166.6801 C.2     1  UNL1        0.1730
      6 C         142.9576  138.5082  165.2598 C.ar    1  UNL1        0.0342
      7 C         141.5582  138.1017  164.9045 C.ar    1  UNL1       -0.0002
      8 C         141.0860  138.2009  163.4843 C.ar    1  UNL1       -0.0082
      9 C         142.0133  138.7066  162.4192 C.ar    1  UNL1        0.0459
     10 C         143.4128  139.1131  162.7744 C.ar    1  UNL1       -0.0070
     11 C         143.8850  139.0139  164.1947 C.ar    1  UNL1       -0.0002
     12 C         144.0952  139.5709  161.5196 C.3     1  UNL1        0.0495
     13 C         143.1175  139.4473  160.3888 C.3     1  UNL1        0.1029
     14 N         141.8308  138.9131  160.9448 N.am    1  UNL1       -0.2589
     15 C         140.4277  138.5083  160.5736 C.2     1  UNL1        0.2297
     16 O         140.0985  138.6620  159.1182 O.2     1  UNL1       -0.2745
     17 C         139.3925  137.9868  161.5256 C.3     1  UNL1        0.0903
     18 C         139.7217  137.8331  162.9810 C.3     1  UNL1        0.0372
     19 C         140.1666  140.1464  169.4576 C.3     1  UNL1        0.0721
     20 N         139.7847  140.4101  168.0311 N.3     1  UNL1       -0.2727
     21 C         138.9058  139.4402  167.2985 C.3     1  UNL1        0.0725
     22 C         138.5240  139.7038  165.8720 C.3     1  UNL1        0.0234
     23 C         139.0210  140.9374  165.1783 C.3     1  UNL1        0.0464
     24 C         139.8998  141.9073  165.9110 C.3     1  UNL1        0.0234
     25 C         140.2817  141.6436  167.3374 C.3     1  UNL1        0.0725
     26 C         138.6391  141.2011  163.7519 C.ar    1  UNL1        0.1003
     27 N         137.2761  141.0125  163.1548 N.ar    1  UNL1       -0.0814
     28 O         137.3478  141.3946  161.7060 O.2     1  UNL1       -0.3536
     29 C         138.7551  141.8193  161.4078 C.ar    1  UNL1        0.1787
     30 C         139.4130  142.2996  160.1482 C.ar    1  UNL1        0.0698
     31 C         140.8690  142.6602  160.1530 C.ar    1  UNL1        0.1433
     32 F         141.5269  143.1405  158.8934 F       1  UNL1       -0.2041
     33 C         141.6671  142.5407  161.4175 C.ar    1  UNL1        0.0299
     34 C         141.0092  142.0605  162.6770 C.ar    1  UNL1        0.0067
     35 C         139.5532  141.6998  162.6722 C.ar    1  UNL1        0.0540
@<TRIPOS>BOND
     1     4     5    2
     2     5     3    1
     3     3     2    1
     4     2     1    1
     5     1    19    1
     6    19    20    1
     7    20    21    1
     8    21    22    1
     9    22    23    1
    10    23    26    1
    11    26    27   ar
    12    27    28   ar
    13    28    29   ar
    14    29    30   ar
    15    30    31   ar
    16    31    32    1
    17    31    33   ar
    18    33    34   ar
    19    34    35   ar
    20    23    24    1
    21    24    25    1
    22     5     6    1
    23     6     7   ar
    24     7     8   ar
    25     8     9   ar
    26     9    10   ar
    27    10    11   ar
    28    10    12    1
    29    12    13    1
    30    13    14    1
    31    14    15   am
    32    15    16    2
    33    15    17    1
    34    17    18    1
    35    25    20    1
    36    11     6   ar
    37    35    26   ar
    38    18     8    1
    39    35    29   ar
    40    14     9    1
@<TRIPOS>MOLECULE
*****
 35 40 0 0 0
SMALL
GASTEIGER

@<TRIPOS>ATOM
      1 C         140.3161  144.5956  157.4143 C.3     1  UNL1        0.0178
      2 C         140.3049  145.5339  158.5846 C.3     1  UNL1        0.0095
      3 C         141.0754  145.1939  159.8258 C.3     1  UNL1        0.0692
      4 O         139.3732  146.2769  161.4628 O.2     1  UNL1       -0.2913
      5 C         140.3945  145.2201  161.1621 C.2     1  UNL1        0.1730
      6 C         140.7348  144.1896  162.1977 C.ar    1  UNL1        0.0342
      7 C         140.1615  144.2973  163.5795 C.ar    1  UNL1       -0.0002
      8 C         140.5017  143.2668  164.6151 C.ar    1  UNL1       -0.0082
      9 C         141.4153  142.1287  164.2687 C.ar    1  UNL1        0.0459
     10 C         141.9887  142.0210  162.8868 C.ar    1  UNL1       -0.0070
     11 C         141.6484  143.0515  161.8513 C.ar    1  UNL1       -0.0002
     12 C         142.8544  140.7970  162.8382 C.3     1  UNL1        0.0495
     13 C         142.8161  140.1482  164.1900 C.3     1  UNL1        0.1029
     14 N         141.9267  140.9712  165.0742 N.am    1  UNL1       -0.2589
     15 C         141.3580  141.0668  166.4662 C.2     1  UNL1        0.2297
     16 O         141.7862  139.9668  167.3918 O.2     1  UNL1       -0.2745
     17 C         140.4354  142.1430  166.9566 C.3     1  UNL1        0.0903
     18 C         140.0072  143.2430  166.0310 C.3     1  UNL1        0.0372
     19 C         139.3949  143.4119  157.3934 C.3     1  UNL1        0.0721
     20 N         139.5070  142.3557  158.4526 N.3     1  UNL1       -0.2727
     21 C         140.6059  141.3371  158.3828 C.3     1  UNL1        0.0725
     22 C         140.7180  140.2809  159.4420 C.3     1  UNL1        0.0234
     23 C         139.7311  140.2433  160.5710 C.3     1  UNL1        0.0464
     24 C         138.6322  141.2618  160.6408 C.3     1  UNL1        0.0234
     25 C         138.5201  142.3180  159.5816 C.3     1  UNL1        0.0725
     26 C         139.8431  139.1871  161.6303 C.ar    1  UNL1        0.1003
     27 N         140.5469  137.8698  161.4908 N.ar    1  UNL1       -0.0814
     28 O         140.4098  137.1314  162.7892 O.2     1  UNL1       -0.3536
     29 C         139.6213  137.9922  163.7310 C.ar    1  UNL1        0.1787
     30 C         139.1769  137.7833  165.1484 C.ar    1  UNL1        0.0698
     31 C         138.3823  138.8450  165.8495 C.ar    1  UNL1        0.1433
     32 F         137.9379  138.6362  167.2669 F       1  UNL1       -0.2041
     33 C         138.0321  140.1155  165.1332 C.ar    1  UNL1        0.0299
     34 C         138.4764  140.3244  163.7158 C.ar    1  UNL1        0.0067
     35 C         139.2711  139.2627  163.0147 C.ar    1  UNL1        0.0540
@<TRIPOS>BOND
     1     4     5    2
     2     5     3    1
     3     3     2    1
     4     2     1    1
     5     1    19    1
     6    19    20    1
     7    20    21    1
     8    21    22    1
     9    22    23    1
    10    23    26    1
    11    26    27   ar
    12    27    28   ar
    13    28    29   ar
    14    29    30   ar
    15    30    31   ar
    16    31    32    1
    17    31    33   ar
    18    33    34   ar
    19    34    35   ar
    20    23    24    1
    21    24    25    1
    22     5     6    1
    23     6     7   ar
    24     7     8   ar
    25     8     9   ar
    26     9    10   ar
    27    10    11   ar
    28    10    12    1
    29    12    13    1
    30    13    14    1
    31    14    15   am
    32    15    16    2
    33    15    17    1
    34    17    18    1
    35    25    20    1
    36    11     6   ar
    37    35    26   ar
    38    18     8    1
    39    35    29   ar
    40    14     9    1
@<TRIPOS>MOLECULE
*****
 35 40 0 0 0
SMALL
GASTEIGER

@<TRIPOS>ATOM
      1 C         137.7081  139.7763  160.5334 C.3     1  UNL1        0.0178
      2 C         138.5623  139.8494  159.3025 C.3     1  UNL1        0.0095
      3 C         139.7153  140.8072  159.2455 C.3     1  UNL1        0.0692
      4 O         138.6347  143.0982  159.8231 O.2     1  UNL1       -0.2913
      5 C         139.6902  142.0610  160.0684 C.2     1  UNL1        0.1730
      6 C         140.7206  142.2777  161.1368 C.ar    1  UNL1        0.0342
      7 C         140.9945  143.6621  161.6449 C.ar    1  UNL1       -0.0002
      8 C         142.0249  143.8788  162.7132 C.ar    1  UNL1       -0.0082
      9 C         142.7814  142.7110  163.2734 C.ar    1  UNL1        0.0459
     10 C         142.5075  141.3265  162.7653 C.ar    1  UNL1       -0.0070
     11 C         141.4771  141.1098  161.6970 C.ar    1  UNL1       -0.0002
     12 C         143.4041  140.3764  163.5025 C.3     1  UNL1        0.0495
     13 C         144.2320  141.1737  164.4662 C.3     1  UNL1        0.1029
     14 N         143.8472  142.6165  164.3247 N.am    1  UNL1       -0.2589
     15 C         144.1327  144.0017  164.8445 C.2     1  UNL1        0.2297
     16 O         145.1866  144.0631  165.9101 O.2     1  UNL1       -0.2745
     17 C         143.4590  145.2597  164.3825 C.3     1  UNL1        0.0903
     18 C         142.4051  145.1983  163.3168 C.3     1  UNL1        0.0372
     19 C         137.8864  138.6465  161.5039 C.3     1  UNL1        0.0721
     20 N         138.2371  138.9342  162.9337 N.3     1  UNL1       -0.2727
     21 C         137.8977  140.2655  163.5358 C.3     1  UNL1        0.0725
     22 C         138.2485  140.5532  164.9656 C.3     1  UNL1        0.0234
     23 C         138.9385  139.5097  165.7932 C.3     1  UNL1        0.0464
     24 C         139.2779  138.1785  165.1910 C.3     1  UNL1        0.0234
     25 C         138.9272  137.8907  163.7613 C.3     1  UNL1        0.0725
     26 C         139.2893  139.7974  167.2230 C.ar    1  UNL1        0.1003
     27 N         138.5432  139.3090  168.4292 N.ar    1  UNL1       -0.0814
     28 O         139.2405  139.8337  169.6492 O.2     1  UNL1       -0.3536
     29 C         140.4174  140.6463  169.1971 C.ar    1  UNL1        0.1787
     30 C         141.4655  141.4039  169.9571 C.ar    1  UNL1        0.0698
     31 C         142.5438  142.1389  169.2175 C.ar    1  UNL1        0.1433
     32 F         143.5920  142.8965  169.9775 F       1  UNL1       -0.2041
     33 C         142.5740  142.1165  167.7180 C.ar    1  UNL1        0.0299
     34 C         141.5259  141.3590  166.9580 C.ar    1  UNL1        0.0067
     35 C         140.4475  140.6239  167.6976 C.ar    1  UNL1        0.0540
@<TRIPOS>BOND
     1     4     5    2
     2     5     3    1
     3     3     2    1
     4     2     1    1
     5     1    19    1
     6    19    20    1
     7    20    21    1
     8    21    22    1
     9    22    23    1
    10    23    26    1
    11    26    27   ar
    12    27    28   ar
    13    28    29   ar
    14    29    30   ar
    15    30    31   ar
    16    31    32    1
    17    31    33   ar
    18    33    34   ar
    19    34    35   ar
    20    23    24    1
    21    24    25    1
    22     5     6    1
    23     6     7   ar
    24     7     8   ar
    25     8     9   ar
    26     9    10   ar
    27    10    11   ar
    28    10    12    1
    29    12    13    1
    30    13    14    1
    31    14    15   am
    32    15    16    2
    33    15    17    1
    34    17    18    1
    35    25    20    1
    36    11     6   ar
    37    35    26   ar
    38    18     8    1
    39    35    29   ar
    40    14     9    1
@<TRIPOS>MOLECULE
*****
 35 40 0 0 0
SMALL
GASTEIGER

@<TRIPOS>ATOM
      1 C         139.9287  141.2093  170.1349 C.3     1  UNL1        0.0178
      2 C         141.0001  141.1106  171.1801 C.3     1  UNL1        0.0095
      3 C         142.4243  140.8724  170.7740 C.3     1  UNL1        0.0692
      4 O         143.7455  143.0343  170.1991 O.2     1  UNL1       -0.2913
      5 C         143.0747  141.7665  169.7603 C.2     1  UNL1        0.1730
      6 C         143.0542  141.3926  168.3077 C.ar    1  UNL1        0.0342
      7 C         143.1749  142.4568  167.2576 C.ar    1  UNL1       -0.0002
      8 C         143.1544  142.0830  165.8051 C.ar    1  UNL1       -0.0082
      9 C         143.0133  140.6450  165.4027 C.ar    1  UNL1        0.0459
     10 C         142.8926  139.5807  166.4528 C.ar    1  UNL1       -0.0070
     11 C         142.9131  139.9544  167.9053 C.ar    1  UNL1       -0.0002
     12 C         142.7665  138.2569  165.7588 C.3     1  UNL1        0.0495
     13 C         142.8093  138.5030  164.2798 C.3     1  UNL1        0.1029
     14 N         142.9618  139.9789  164.0596 N.am    1  UNL1       -0.2589
     15 C         143.0821  141.0374  162.9941 C.2     1  UNL1        0.2297
     16 O         143.0460  140.5146  161.5886 O.2     1  UNL1       -0.2745
     17 C         143.2286  142.5093  163.2433 C.3     1  UNL1        0.0903
     18 C         143.2647  143.0321  164.6488 C.3     1  UNL1        0.0372
     19 C         139.5541  140.0011  169.3285 C.3     1  UNL1        0.0721
     20 N         139.2091  140.1465  167.8760 N.3     1  UNL1       -0.2727
     21 C         138.3660  139.1076  167.1977 C.3     1  UNL1        0.0725
     22 C         138.0210  139.2530  165.7452 C.3     1  UNL1        0.0234
     23 C         138.5190  140.4372  164.9709 C.3     1  UNL1        0.0464
     24 C         139.3621  141.4760  165.6491 C.3     1  UNL1        0.0234
     25 C         139.7071  141.3307  167.1017 C.3     1  UNL1        0.0725
     26 C         138.1741  140.5826  163.5183 C.ar    1  UNL1        0.1003
     27 N         137.1626  141.5291  162.9429 N.ar    1  UNL1       -0.0814
     28 O         137.1434  141.3386  161.4552 O.2     1  UNL1       -0.3536
     29 C         138.1429  140.2745  161.1112 C.ar    1  UNL1        0.1787
     30 C         138.5554  139.6705  159.8015 C.ar    1  UNL1        0.0698
     31 C         139.6049  138.5993  159.7671 C.ar    1  UNL1        0.1433
     32 F         140.0174  137.9953  158.4574 F       1  UNL1       -0.2041
     33 C         140.2419  138.1321  161.0422 C.ar    1  UNL1        0.0299
     34 C         139.8295  138.7361  162.3518 C.ar    1  UNL1        0.0067
     35 C         138.7799  139.8073  162.3863 C.ar    1  UNL1        0.0540
@<TRIPOS>BOND
     1     4     5    2
     2     5     3    1
     3     3     2    1
     4     2     1    1
     5     1    19    1
     6    19    20    1
     7    20    21    1
     8    21    22    1
     9    22    23    1
    10    23    26    1
    11    26    27   ar
    12    27    28   ar
    13    28    29   ar
    14    29    30   ar
    15    30    31   ar
    16    31    32    1
    17    31    33   ar
    18    33    34   ar
    19    34    35   ar
    20    23    24    1
    21    24    25    1
    22     5     6    1
    23     6     7   ar
    24     7     8   ar
    25     8     9   ar
    26     9    10   ar
    27    10    11   ar
    28    10    12    1
    29    12    13    1
    30    13    14    1
    31    14    15   am
    32    15    16    2
    33    15    17    1
    34    17    18    1
    35    25    20    1
    36    11     6   ar
    37    35    26   ar
    38    18     8    1
    39    35    29   ar
    40    14     9    1
@<TRIPOS>MOLECULE
*****
 35 40 0 0 0
SMALL
GASTEIGER

@<TRIPOS>ATOM
      1 C         140.4586  140.8473  169.4092 C.3     1  UNL1        0.0178
      2 C         139.9284  139.9260  168.3508 C.3     1  UNL1        0.0095
      3 C         138.4725  139.5656  168.3308 C.3     1  UNL1        0.0692
      4 O         136.8402  137.7544  167.4334 O.2     1  UNL1       -0.2913
      5 C         137.9112  138.7752  167.1862 C.2     1  UNL1        0.1730
      6 C         138.4209  139.0055  165.7943 C.ar    1  UNL1        0.0342
      7 C         138.1138  140.2917  165.0864 C.ar    1  UNL1       -0.0002
      8 C         138.6234  140.5220  163.6946 C.ar    1  UNL1       -0.0082
      9 C         139.4402  139.4660  163.0107 C.ar    1  UNL1        0.0459
     10 C         139.7474  138.1797  163.7186 C.ar    1  UNL1       -0.0070
     11 C         139.2377  137.9494  165.1104 C.ar    1  UNL1       -0.0002
     12 C         140.5707  137.3289  162.7976 C.3     1  UNL1        0.0495
     13 C         140.7723  138.0893  161.5205 C.3     1  UNL1        0.1029
     14 N         140.0737  139.4101  161.6521 N.am    1  UNL1       -0.2589
     15 C         139.7728  140.6973  160.9290 C.2     1  UNL1        0.2297
     16 O         140.3476  140.7850  159.5463 O.2     1  UNL1       -0.2745
     17 C         138.9727  141.8390  161.4825 C.3     1  UNL1        0.0903
     18 C         138.3980  141.7514  162.8653 C.3     1  UNL1        0.0372
     19 C         140.9817  142.2014  169.0313 C.3     1  UNL1        0.0721
     20 N         141.2958  142.5106  167.5975 N.3     1  UNL1       -0.2727
     21 C         142.6743  142.2615  167.0612 C.3     1  UNL1        0.0725
     22 C         142.9885  142.5707  165.6274 C.3     1  UNL1        0.0234
     23 C         141.9241  143.1290  164.7300 C.3     1  UNL1        0.0464
     24 C         140.5456  143.3782  165.2663 C.3     1  UNL1        0.0234
     25 C         140.2315  143.0690  166.7001 C.3     1  UNL1        0.0725
     26 C         142.2382  143.4383  163.2961 C.ar    1  UNL1        0.1003
     27 N         142.0630  144.7667  162.6220 N.ar    1  UNL1       -0.0814
     28 O         142.4991  144.6229  161.1940 O.2     1  UNL1       -0.3536
     29 C         142.9437  143.2056  160.9857 C.ar    1  UNL1        0.1787
     30 C         143.4747  142.4871  159.7807 C.ar    1  UNL1        0.0698
     31 C         143.8443  141.0364  159.8750 C.ar    1  UNL1        0.1433
     32 F         144.3753  140.3178  158.6701 F       1  UNL1       -0.2041
     33 C         143.6831  140.3043  161.1742 C.ar    1  UNL1        0.0299
     34 C         143.1522  141.0228  162.3791 C.ar    1  UNL1        0.0067
     35 C         142.7825  142.4735  162.2849 C.ar    1  UNL1        0.0540
@<TRIPOS>BOND
     1     4     5    2
     2     5     3    1
     3     3     2    1
     4     2     1    1
     5     1    19    1
     6    19    20    1
     7    20    21    1
     8    21    22    1
     9    22    23    1
    10    23    26    1
    11    26    27   ar
    12    27    28   ar
    13    28    29   ar
    14    29    30   ar
    15    30    31   ar
    16    31    32    1
    17    31    33   ar
    18    33    34   ar
    19    34    35   ar
    20    23    24    1
    21    24    25    1
    22     5     6    1
    23     6     7   ar
    24     7     8   ar
    25     8     9   ar
    26     9    10   ar
    27    10    11   ar
    28    10    12    1
    29    12    13    1
    30    13    14    1
    31    14    15   am
    32    15    16    2
    33    15    17    1
    34    17    18    1
    35    25    20    1
    36    11     6   ar
    37    35    26   ar
    38    18     8    1
    39    35    29   ar
    40    14     9    1
@<TRIPOS>MOLECULE
*****
 35 40 0 0 0
SMALL
GASTEIGER

@<TRIPOS>ATOM
      1 C         139.2446  141.4886  170.1239 C.3     1  UNL1        0.0178
      2 C         140.5260  141.8834  170.7964 C.3     1  UNL1        0.0095
      3 C         141.3955  142.9443  170.1896 C.3     1  UNL1        0.0692
      4 O         143.8168  142.1466  169.6885 O.2     1  UNL1       -0.2913
      5 C         142.4612  142.5673  169.2035 C.2     1  UNL1        0.1730
      6 C         142.1711  142.6110  167.7324 C.ar    1  UNL1        0.0342
      7 C         140.8038  142.9932  167.2486 C.ar    1  UNL1       -0.0002
      8 C         140.5137  143.0369  165.7776 C.ar    1  UNL1       -0.0082
      9 C         141.5911  142.6984  164.7904 C.ar    1  UNL1        0.0459
     10 C         142.9585  142.3162  165.2742 C.ar    1  UNL1       -0.0070
     11 C         143.2486  142.2725  166.7452 C.ar    1  UNL1       -0.0002
     12 C         143.8135  142.0363  164.0739 C.3     1  UNL1        0.0495
     13 C         142.9744  142.2454  162.8482 C.3     1  UNL1        0.1029
     14 N         141.6009  142.6547  163.2910 N.am    1  UNL1       -0.2589
     15 C         140.2319  143.0369  162.7908 C.2     1  UNL1        0.2297
     16 O         140.0910  143.0369  161.2974 O.2     1  UNL1       -0.2745
     17 C         139.0604  143.3992  163.6547 C.3     1  UNL1        0.0903
     18 C         139.2013  143.3992  165.1481 C.3     1  UNL1        0.0372
     19 C         139.0218  140.0634  169.7124 C.3     1  UNL1        0.0721
     20 N         139.2447  139.6507  168.2876 N.3     1  UNL1       -0.2727
     21 C         140.6220  139.7095  167.6964 C.3     1  UNL1        0.0725
     22 C         140.8449  139.2968  166.2716 C.3     1  UNL1        0.0234
     23 C         139.6905  138.8252  165.4380 C.3     1  UNL1        0.0464
     24 C         138.3132  138.7663  166.0292 C.3     1  UNL1        0.0234
     25 C         138.0903  139.1791  167.4540 C.3     1  UNL1        0.0725
     26 C         139.9133  138.4124  164.0132 C.ar    1  UNL1        0.1003
     27 N         140.8685  137.3571  163.5402 N.ar    1  UNL1       -0.0814
     28 O         140.7656  137.2749  162.0460 O.2     1  UNL1       -0.3536
     29 C         139.7469  138.2794  161.5956 C.ar    1  UNL1        0.1787
     30 C         139.2307  138.6449  160.2354 C.ar    1  UNL1        0.0698
     31 C         138.1879  139.7133  160.0911 C.ar    1  UNL1        0.1433
     32 F         137.6717  140.0787  158.7308 F       1  UNL1       -0.2041
     33 C         137.6611  140.4163  161.3069 C.ar    1  UNL1        0.0299
     34 C         138.1772  140.0509  162.6671 C.ar    1  UNL1        0.0067
     35 C         139.2201  138.9825  162.8114 C.ar    1  UNL1        0.0540
@<TRIPOS>BOND
     1     4     5    2
     2     5     3    1
     3     3     2    1
     4     2     1    1
     5     1    19    1
     6    19    20    1
     7    20    21    1
     8    21    22    1
     9    22    23    1
    10    23    26    1
    11    26    27   ar
    12    27    28   ar
    13    28    29   ar
    14    29    30   ar
    15    30    31   ar
    16    31    32    1
    17    31    33   ar
    18    33    34   ar
    19    34    35   ar
    20    23    24    1
    21    24    25    1
    22     5     6    1
    23     6     7   ar
    24     7     8   ar
    25     8     9   ar
    26     9    10   ar
    27    10    11   ar
    28    10    12    1
    29    12    13    1
    30    13    14    1
    31    14    15   am
    32    15    16    2
    33    15    17    1
    34    17    18    1
    35    25    20    1
    36    11     6   ar
    37    35    26   ar
    38    18     8    1
    39    35    29   ar
    40    14     9    1
@<TRIPOS>MOLECULE
*****
 35 40 0 0 0
SMALL
GASTEIGER

@<TRIPOS>ATOM
      1 C         139.0450  139.9512  168.1746 C.3     1  UNL1        0.0178
      2 C         140.5392  139.8661  168.2764 C.3     1  UNL1        0.0095
      3 C         141.3130  140.9859  168.9065 C.3     1  UNL1        0.0692
      4 O         143.3009  142.6260  168.5770 O.2     1  UNL1       -0.2913
      5 C         142.0714  141.9514  168.0447 C.2     1  UNL1        0.1730
      6 C         141.6002  142.2423  166.6506 C.ar    1  UNL1        0.0342
      7 C         140.4291  143.1530  166.4295 C.ar    1  UNL1       -0.0002
      8 C         139.9579  143.4439  165.0355 C.ar    1  UNL1       -0.0082
      9 C         140.6579  142.8241  163.8625 C.ar    1  UNL1        0.0459
     10 C         141.8291  141.9134  164.0836 C.ar    1  UNL1       -0.0070
     11 C         142.3003  141.6225  165.4777 C.ar    1  UNL1       -0.0002
     12 C         142.3167  141.4514  162.7425 C.3     1  UNL1        0.0495
     13 C         141.4469  142.0766  161.6925 C.3     1  UNL1        0.1029
     14 N         140.4217  142.9250  162.3847 N.am    1  UNL1       -0.2589
     15 C         139.2466  143.8378  162.1477 C.2     1  UNL1        0.2297
     16 O         138.8909  144.0348  160.7039 O.2     1  UNL1       -0.2745
     17 C         138.4513  144.5268  163.2168 C.3     1  UNL1        0.0903
     18 C         138.8069  144.3298  164.6607 C.3     1  UNL1        0.0372
     19 C         138.2944  138.9718  167.3218 C.3     1  UNL1        0.0721
     20 N         138.4328  139.0171  165.8289 N.3     1  UNL1       -0.2727
     21 C         138.1400  140.2874  165.0868 C.3     1  UNL1        0.0725
     22 C         138.2784  140.3327  163.5938 C.3     1  UNL1        0.0234
     23 C         138.7096  139.1078  162.8430 C.3     1  UNL1        0.0464
     24 C         139.0023  137.8376  163.5852 C.3     1  UNL1        0.0234
     25 C         138.8639  137.7922  165.0781 C.3     1  UNL1        0.0725
     26 C         138.8480  139.1531  161.3501 C.ar    1  UNL1        0.1003
     27 N         137.7909  139.5895  160.3795 N.ar    1  UNL1       -0.0814
     28 O         138.3573  139.4760  158.9952 O.2     1  UNL1       -0.3536
     29 C         139.7645  138.9696  159.1103 C.ar    1  UNL1        0.1787
     30 C         140.8090  138.6643  158.0778 C.ar    1  UNL1        0.0698
     31 C         142.1566  138.1595  158.5008 C.ar    1  UNL1        0.1433
     32 F         143.2011  137.8543  157.4683 F       1  UNL1       -0.2041
     33 C         142.4599  137.9600  159.9562 C.ar    1  UNL1        0.0299
     34 C         141.4155  138.2652  160.9886 C.ar    1  UNL1        0.0067
     35 C         140.0677  138.7700  160.5657 C.ar    1  UNL1        0.0540
@<TRIPOS>BOND
     1     4     5    2
     2     5     3    1
     3     3     2    1
     4     2     1    1
     5     1    19    1
     6    19    20    1
     7    20    21    1
     8    21    22    1
     9    22    23    1
    10    23    26    1
    11    26    27   ar
    12    27    28   ar
    13    28    29   ar
    14    29    30   ar
    15    30    31   ar
    16    31    32    1
    17    31    33   ar
    18    33    34   ar
    19    34    35   ar
    20    23    24    1
    21    24    25    1
    22     5     6    1
    23     6     7   ar
    24     7     8   ar
    25     8     9   ar
    26     9    10   ar
    27    10    11   ar
    28    10    12    1
    29    12    13    1
    30    13    14    1
    31    14    15   am
    32    15    16    2
    33    15    17    1
    34    17    18    1
    35    25    20    1
    36    11     6   ar
    37    35    26   ar
    38    18     8    1
    39    35    29   ar
    40    14     9    1
@<TRIPOS>MOLECULE
*****
 35 40 0 0 0
SMALL
GASTEIGER

@<TRIPOS>ATOM
      1 C         142.3430  142.4327  170.3469 C.3     1  UNL1        0.0178
      2 C         140.9064  142.3239  170.7646 C.3     1  UNL1        0.0095
      3 C         139.8363  142.1406  169.7296 C.3     1  UNL1        0.0692
      4 O         139.2744  139.6373  170.1393 O.2     1  UNL1       -0.2913
      5 C         139.5376  140.7717  169.1939 C.2     1  UNL1        0.1730
      6 C         139.5020  140.5372  167.7127 C.ar    1  UNL1        0.0342
      7 C         139.7717  141.6701  166.7674 C.ar    1  UNL1       -0.0002
      8 C         139.7362  141.4356  165.2862 C.ar    1  UNL1       -0.0082
      9 C         139.4309  140.0683  164.7505 C.ar    1  UNL1        0.0459
     10 C         139.1611  138.9353  165.6958 C.ar    1  UNL1       -0.0070
     11 C         139.1967  139.1698  167.1770 C.ar    1  UNL1       -0.0002
     12 C         138.8906  137.7057  164.8805 C.3     1  UNL1        0.0495
     13 C         138.9932  138.0786  163.4313 C.3     1  UNL1        0.1029
     14 N         139.3271  139.5388  163.3509 N.am    1  UNL1       -0.2589
     15 C         139.5961  140.6675  162.3896 C.2     1  UNL1        0.2297
     16 O         139.5260  140.2834  160.9413 O.2     1  UNL1       -0.2745
     17 C         139.9138  142.0816  162.7760 C.3     1  UNL1        0.0903
     18 C         139.9839  142.4657  164.2243 C.3     1  UNL1        0.0372
     19 C         143.0695  141.2232  169.8376 C.3     1  UNL1        0.0721
     20 N         143.0701  140.9113  168.3704 N.3     1  UNL1       -0.2727
     21 C         143.2572  142.0127  167.3696 C.3     1  UNL1        0.0725
     22 C         143.2577  141.7008  165.9023 C.3     1  UNL1        0.0234
     23 C         143.0712  140.2874  165.4360 C.3     1  UNL1        0.0464
     24 C         142.8840  139.1860  166.4368 C.3     1  UNL1        0.0234
     25 C         142.8835  139.4979  167.9041 C.3     1  UNL1        0.0725
     26 C         143.0717  139.9754  163.9687 C.ar    1  UNL1        0.1003
     27 N         142.7580  138.6454  163.3502 N.ar    1  UNL1       -0.0814
     28 O         142.8784  138.7866  161.8617 O.2     1  UNL1       -0.3536
     29 C         143.2665  140.2038  161.5604 C.ar    1  UNL1        0.1787
     30 C         143.5266  140.9202  160.2684 C.ar    1  UNL1        0.0698
     31 C         143.9061  142.3714  160.2788 C.ar    1  UNL1        0.1433
     32 F         144.1662  143.0878  158.9868 F       1  UNL1       -0.2041
     33 C         144.0256  143.1061  161.5810 C.ar    1  UNL1        0.0299
     34 C         143.7655  142.3897  162.8729 C.ar    1  UNL1        0.0067
     35 C         143.3860  140.9385  162.8627 C.ar    1  UNL1        0.0540
@<TRIPOS>BOND
     1     4     5    2
     2     5     3    1
     3     3     2    1
     4     2     1    1
     5     1    19    1
     6    19    20    1
     7    20    21    1
     8    21    22    1
     9    22    23    1
    10    23    26    1
    11    26    27   ar
    12    27    28   ar
    13    28    29   ar
    14    29    30   ar
    15    30    31   ar
    16    31    32    1
    17    31    33   ar
    18    33    34   ar
    19    34    35   ar
    20    23    24    1
    21    24    25    1
    22     5     6    1
    23     6     7   ar
    24     7     8   ar
    25     8     9   ar
    26     9    10   ar
    27    10    11   ar
    28    10    12    1
    29    12    13    1
    30    13    14    1
    31    14    15   am
    32    15    16    2
    33    15    17    1
    34    17    18    1
    35    25    20    1
    36    11     6   ar
    37    35    26   ar
    38    18     8    1
    39    35    29   ar
    40    14     9    1
@<TRIPOS>MOLECULE
*****
 35 40 0 0 0
SMALL
GASTEIGER

@<TRIPOS>ATOM
      1 C         139.6073  140.4653  168.1151 C.3     1  UNL1        0.0178
      2 C         140.6312  139.8727  169.0373 C.3     1  UNL1        0.0095
      3 C         142.0924  140.0447  168.7454 C.3     1  UNL1        0.0692
      4 O         142.6710  142.5596  169.0465 O.2     1  UNL1       -0.2913
      5 C         142.5967  141.3386  168.1783 C.2     1  UNL1        0.1730
      6 C         143.0267  141.4116  166.7431 C.ar    1  UNL1        0.0342
      7 C         143.2781  142.7442  166.1023 C.ar    1  UNL1       -0.0002
      8 C         143.7081  142.8171  164.6671 C.ar    1  UNL1       -0.0082
      9 C         143.8866  141.5573  163.8727 C.ar    1  UNL1        0.0459
     10 C         143.6351  140.2246  164.5135 C.ar    1  UNL1       -0.0070
     11 C         143.2052  140.1517  165.9487 C.ar    1  UNL1       -0.0002
     12 C         143.8915  139.1611  163.4873 C.3     1  UNL1        0.0495
     13 C         144.3014  139.8365  162.2122 C.3     1  UNL1        0.1029
     14 N         144.2984  141.3175  162.4504 N.am    1  UNL1       -0.2589
     15 C         144.5545  142.6492  161.7938 C.2     1  UNL1        0.2297
     16 O         144.9777  142.5653  160.3572 O.2     1  UNL1       -0.2745
     17 C         144.4181  143.9869  162.4586 C.3     1  UNL1        0.0903
     18 C         143.9949  144.0709  163.8952 C.3     1  UNL1        0.0372
     19 C         139.5573  140.0399  166.6775 C.3     1  UNL1        0.0721
     20 N         139.6036  141.0704  165.5885 N.3     1  UNL1       -0.2727
     21 C         139.5501  140.6454  164.1510 C.3     1  UNL1        0.0725
     22 C         139.5965  141.6759  163.0620 C.3     1  UNL1        0.0234
     23 C         139.6963  143.1314  163.4105 C.3     1  UNL1        0.0464
     24 C         139.7499  143.5564  164.8480 C.3     1  UNL1        0.0234
     25 C         139.7035  142.5259  165.9370 C.3     1  UNL1        0.0725
     26 C         139.7427  144.1620  162.3215 C.ar    1  UNL1        0.1003
     27 N         139.0659  145.5005  162.3450 N.ar    1  UNL1       -0.0814
     28 O         139.3789  146.2008  161.0560 O.2     1  UNL1       -0.3536
     29 C         140.2490  145.2952  160.2359 C.ar    1  UNL1        0.1787
     30 C         140.8657  145.4551  158.8779 C.ar    1  UNL1        0.0698
     31 C         141.7072  144.3550  158.3021 C.ar    1  UNL1        0.1433
     32 F         142.3239  144.5149  156.9440 F       1  UNL1       -0.2041
     33 C         141.9321  143.0949  159.0842 C.ar    1  UNL1        0.0299
     34 C         141.3154  142.9350  160.4422 C.ar    1  UNL1        0.0067
     35 C         140.4739  144.0352  161.0181 C.ar    1  UNL1        0.0540
@<TRIPOS>BOND
     1     4     5    2
     2     5     3    1
     3     3     2    1
     4     2     1    1
     5     1    19    1
     6    19    20    1
     7    20    21    1
     8    21    22    1
     9    22    23    1
    10    23    26    1
    11    26    27   ar
    12    27    28   ar
    13    28    29   ar
    14    29    30   ar
    15    30    31   ar
    16    31    32    1
    17    31    33   ar
    18    33    34   ar
    19    34    35   ar
    20    23    24    1
    21    24    25    1
    22     5     6    1
    23     6     7   ar
    24     7     8   ar
    25     8     9   ar
    26     9    10   ar
    27    10    11   ar
    28    10    12    1
    29    12    13    1
    30    13    14    1
    31    14    15   am
    32    15    16    2
    33    15    17    1
    34    17    18    1
    35    25    20    1
    36    11     6   ar
    37    35    26   ar
    38    18     8    1
    39    35    29   ar
    40    14     9    1
