@<TRIPOS>MOLECULE
*****
 30 33 0 0 0
SMALL
GASTEIGER

@<TRIPOS>ATOM
      1 C         139.7743  140.7527  166.3415 C.2     1  UNL1        0.3177
      2 N         139.6660  141.7863  165.2599 N.2     1  UNL1       -0.0615
      3 C         139.4915  141.0724  163.9523 C.3     1  UNL1        0.2514
      4 C         139.4920  139.5975  164.2257 C.3     1  UNL1        0.2097
      5 C         139.3438  138.5110  163.2023 C.3     1  UNL1        0.0559
      6 N         139.6669  139.3999  165.7023 N.pl3   1  UNL1       -0.2182
      7 H         139.7045  138.5343  166.1699 H       1  UNL1        0.2923
      8 N         140.9899  142.4486  169.7174 N.ar    1  UNL1       -0.1396
      9 C         140.8063  142.1771  168.2537 C.ar    1  UNL1        0.1275
     10 C         139.9580  141.0241  167.8053 C.ar    1  UNL1        0.1024
     11 C         139.2934  140.1425  168.8207 C.ar    1  UNL1        0.0140
     12 C         139.4770  140.4140  170.2845 C.ar    1  UNL1        0.0640
     13 C         140.3253  141.5670  170.7328 C.ar    1  UNL1        0.2925
     14 O         140.5089  141.8384  172.1966 O.2     1  UNL1       -0.2640
     15 C         143.2274  143.3569  170.6757 C.3     1  UNL1        0.2864
     16 O         141.8382  143.6016  170.1657 O.3     1  UNL1       -0.3880
     17 C         139.4528  142.4586  163.3805 C.ar    1  UNL1        0.0297
     18 C         138.1744  143.2429  163.4011 C.ar    1  UNL1        0.0025
     19 C         138.1357  144.6292  162.8293 C.ar    1  UNL1        0.0295
     20 C         139.3753  145.2309  162.2369 C.ar    1  UNL1        0.1401
     21 F         139.3367  146.6172  161.6651 F       1  UNL1       -0.2042
     22 C         140.6537  144.4466  162.2163 C.ar    1  UNL1        0.0295
     23 C         140.6925  143.0604  162.7881 C.ar    1  UNL1        0.0025
     24 C         139.3089  140.6482  162.5252 C.ar    1  UNL1        0.0488
     25 C         137.9287  140.5153  161.9529 C.ar    1  UNL1        0.0057
     26 C         137.7462  140.0911  160.5258 C.ar    1  UNL1        0.0495
     27 C         138.9439  139.7999  159.6709 C.ar    1  UNL1        0.2223
     28 F         138.7614  139.3758  158.2437 F       1  UNL1       -0.1832
     29 N         140.3240  139.9329  160.2431 N.ar    1  UNL1       -0.2166
     30 C         140.5065  140.3570  161.6703 C.ar    1  UNL1        0.1014
@<TRIPOS>BOND
     1    15    16    1
     2    16     8    1
     3     8     9   ar
     4     9    10   ar
     5    10     1    1
     6     1     2    2
     7     2     3    1
     8     3    17    1
     9    17    18   ar
    10    18    19   ar
    11    19    20   ar
    12    20    21    1
    13    20    22   ar
    14    22    23   ar
    15     3    24    1
    16    24    25   ar
    17    25    26   ar
    18    26    27   ar
    19    27    28    1
    20    27    29   ar
    21    29    30   ar
    22     3     4    1
    23     4     5    1
    24     4     6    1
    25    10    11   ar
    26    11    12   ar
    27    12    13   ar
    28    13    14    2
    29    13     8   ar
    30     6     1    1
    31    23    17   ar
    32    30    24   ar
    33     6     7    1
@<TRIPOS>MOLECULE
*****
 30 33 0 0 0
SMALL
GASTEIGER

@<TRIPOS>ATOM
      1 C         142.0989  141.2542  166.5304 C.2     1  UNL1        0.3177
      2 N         141.2951  140.5649  165.4680 N.2     1  UNL1       -0.0615
      3 C         142.0977  140.5735  164.2008 C.3     1  UNL1        0.2514
      4 C         143.3975  141.2681  164.4800 C.3     1  UNL1        0.2097
      5 C         144.5026  141.5011  163.4928 C.3     1  UNL1        0.0559
      6 N         143.3982  141.6888  165.9198 N.pl3   1  UNL1       -0.2182
      7 H         144.1241  142.1664  166.3827 H       1  UNL1        0.2923
      8 N         140.3020  140.7319  170.0302 N.ar    1  UNL1       -0.1396
      9 C         140.7236  140.5153  168.6071 C.ar    1  UNL1        0.1275
     10 C         141.6773  141.4709  167.9536 C.ar    1  UNL1        0.1024
     11 C         142.2095  142.6433  168.7232 C.ar    1  UNL1        0.0140
     12 C         141.7880  142.8600  170.1463 C.ar    1  UNL1        0.0640
     13 C         140.8342  141.9043  170.7998 C.ar    1  UNL1        0.2925
     14 O         140.4127  142.1210  172.2230 O.2     1  UNL1       -0.2640
     15 C         137.8860  139.8333  170.3546 C.3     1  UNL1        0.2864
     16 O         139.3483  139.7763  170.6837 O.3     1  UNL1       -0.3880
     17 C         140.9139  139.8490  163.6317 C.ar    1  UNL1        0.0297
     18 C         139.7965  140.6215  162.9958 C.ar    1  UNL1        0.0025
     19 C         138.6127  139.8969  162.4267 C.ar    1  UNL1        0.0295
     20 C         138.5464  138.4000  162.4936 C.ar    1  UNL1        0.1401
     21 F         137.3627  137.6754  161.9245 F       1  UNL1       -0.2042
     22 C         139.6639  137.6274  163.1295 C.ar    1  UNL1        0.0295
     23 C         140.8476  138.3519  163.6986 C.ar    1  UNL1        0.0025
     24 C         142.6528  140.4306  162.8146 C.ar    1  UNL1        0.0488
     25 C         143.4497  139.2139  162.4475 C.ar    1  UNL1        0.0057
     26 C         144.0048  139.0710  161.0614 C.ar    1  UNL1        0.0495
     27 C         143.7630  140.1449  160.0423 C.ar    1  UNL1        0.2223
     28 F         144.3182  140.0020  158.6562 F       1  UNL1       -0.1832
     29 N         142.9662  141.3615  160.4093 N.ar    1  UNL1       -0.2166
     30 C         142.4111  141.5044  161.7956 C.ar    1  UNL1        0.1014
@<TRIPOS>BOND
     1    15    16    1
     2    16     8    1
     3     8     9   ar
     4     9    10   ar
     5    10     1    1
     6     1     2    2
     7     2     3    1
     8     3    17    1
     9    17    18   ar
    10    18    19   ar
    11    19    20   ar
    12    20    21    1
    13    20    22   ar
    14    22    23   ar
    15     3    24    1
    16    24    25   ar
    17    25    26   ar
    18    26    27   ar
    19    27    28    1
    20    27    29   ar
    21    29    30   ar
    22     3     4    1
    23     4     5    1
    24     4     6    1
    25    10    11   ar
    26    11    12   ar
    27    12    13   ar
    28    13    14    2
    29    13     8   ar
    30     6     1    1
    31    23    17   ar
    32    30    24   ar
    33     6     7    1
@<TRIPOS>MOLECULE
*****
 30 33 0 0 0
SMALL
GASTEIGER

@<TRIPOS>ATOM
      1 C         140.3534  142.8947  166.2233 C.2     1  UNL1        0.3177
      2 N         141.0940  142.2555  165.0863 N.2     1  UNL1       -0.0615
      3 C         140.6942  142.9549  163.8210 C.3     1  UNL1        0.2514
      4 C         139.7064  144.0265  164.1760 C.3     1  UNL1        0.2097
      5 C         139.0453  144.9697  163.2151 C.3     1  UNL1        0.0559
      6 N         139.4958  143.9893  165.6607 N.pl3   1  UNL1       -0.2182
      7 H         138.8994  144.5796  166.1755 H       1  UNL1        0.2923
      8 N         140.8312  140.6954  169.4920 N.ar    1  UNL1       -0.1396
      9 C         140.7317  141.0827  168.0463 C.ar    1  UNL1        0.1275
     10 C         140.4528  142.5075  167.6690 C.ar    1  UNL1        0.1024
     11 C         140.2734  143.5449  168.7374 C.ar    1  UNL1        0.0140
     12 C         140.3728  143.1576  170.1831 C.ar    1  UNL1        0.0640
     13 C         140.6517  141.7328  170.5604 C.ar    1  UNL1        0.2925
     14 O         140.7512  141.3456  172.0062 O.2     1  UNL1       -0.2640
     15 C         142.5253  138.8019  170.0345 C.3     1  UNL1        0.2864
     16 O         141.1101  139.2707  169.8693 O.3     1  UNL1       -0.3880
     17 C         141.6397  141.9873  163.1732 C.ar    1  UNL1        0.0297
     18 C         143.1162  142.2505  163.1985 C.ar    1  UNL1        0.0025
     19 C         144.0617  141.2828  162.5506 C.ar    1  UNL1        0.0295
     20 C         143.5307  140.0521  161.8775 C.ar    1  UNL1        0.1401
     21 F         144.4763  139.0844  161.2296 F       1  UNL1       -0.2042
     22 C         142.0542  139.7889  161.8521 C.ar    1  UNL1        0.0295
     23 C         141.1087  140.7565  162.5000 C.ar    1  UNL1        0.0025
     24 C         140.4920  143.4521  162.4204 C.ar    1  UNL1        0.0488
     25 C         141.4396  144.4583  161.8375 C.ar    1  UNL1        0.0057
     26 C         141.2374  144.9555  160.4368 C.ar    1  UNL1        0.0495
     27 C         140.0875  144.4465  159.6190 C.ar    1  UNL1        0.2223
     28 F         139.8853  144.9437  158.2183 F       1  UNL1       -0.1832
     29 N         139.1400  143.4404  160.2018 N.ar    1  UNL1       -0.2166
     30 C         139.3422  142.9432  161.6025 C.ar    1  UNL1        0.1014
@<TRIPOS>BOND
     1    15    16    1
     2    16     8    1
     3     8     9   ar
     4     9    10   ar
     5    10     1    1
     6     1     2    2
     7     2     3    1
     8     3    17    1
     9    17    18   ar
    10    18    19   ar
    11    19    20   ar
    12    20    21    1
    13    20    22   ar
    14    22    23   ar
    15     3    24    1
    16    24    25   ar
    17    25    26   ar
    18    26    27   ar
    19    27    28    1
    20    27    29   ar
    21    29    30   ar
    22     3     4    1
    23     4     5    1
    24     4     6    1
    25    10    11   ar
    26    11    12   ar
    27    12    13   ar
    28    13    14    2
    29    13     8   ar
    30     6     1    1
    31    23    17   ar
    32    30    24   ar
    33     6     7    1
@<TRIPOS>MOLECULE
*****
 30 33 0 0 0
SMALL
GASTEIGER

@<TRIPOS>ATOM
      1 C         141.1460  142.8305  164.1711 C.2     1  UNL1        0.3177
      2 N         140.5313  141.5371  164.6176 N.2     1  UNL1       -0.0615
      3 C         141.1996  141.1230  165.8950 C.3     1  UNL1        0.2514
      4 C         142.2272  142.1605  166.2381 C.3     1  UNL1        0.2097
      5 C         143.1295  142.1453  167.4363 C.3     1  UNL1        0.0559
      6 N         142.1941  143.2158  165.1727 N.pl3   1  UNL1       -0.2182
      7 H         142.7607  144.0200  165.1370 H       1  UNL1        0.2923
      8 N         140.2251  143.6615  160.4013 N.ar    1  UNL1       -0.1396
      9 C         140.5938  142.8890  161.6330 C.ar    1  UNL1        0.1275
     10 C         140.7772  143.6031  162.9393 C.ar    1  UNL1        0.1024
     11 C         140.5920  145.0897  163.0139 C.ar    1  UNL1        0.0140
     12 C         140.2233  145.8622  161.7821 C.ar    1  UNL1        0.0640
     13 C         140.0398  145.1481  160.4758 C.ar    1  UNL1        0.2925
     14 O         139.6711  145.9207  159.2440 O.2     1  UNL1       -0.2640
     15 C         138.6713  142.5198  158.6600 C.3     1  UNL1        0.2864
     16 O         140.0416  142.9474  159.0950 O.3     1  UNL1       -0.3880
     17 C         140.2711  139.9476  165.8156 C.ar    1  UNL1        0.0297
     18 C         140.5918  138.7986  164.9062 C.ar    1  UNL1        0.0025
     19 C         139.6632  137.6232  164.8268 C.ar    1  UNL1        0.0295
     20 C         138.4141  137.5968  165.6567 C.ar    1  UNL1        0.1401
     21 F         137.4856  136.4213  165.5773 F       1  UNL1       -0.2042
     22 C         138.0934  138.7457  166.5661 C.ar    1  UNL1        0.0295
     23 C         139.0219  139.9211  166.6456 C.ar    1  UNL1        0.0025
     24 C         141.6737  140.4632  167.1559 C.ar    1  UNL1        0.0488
     25 C         141.0706  140.8454  168.4750 C.ar    1  UNL1        0.0057
     26 C         141.5447  140.1856  169.7359 C.ar    1  UNL1        0.0495
     27 C         142.6221  139.1434  169.6776 C.ar    1  UNL1        0.2223
     28 F         143.0963  138.4836  170.9384 F       1  UNL1       -0.1832
     29 N         143.2252  138.7612  168.3585 N.ar    1  UNL1       -0.2166
     30 C         142.7510  139.4211  167.0976 C.ar    1  UNL1        0.1014
@<TRIPOS>BOND
     1    15    16    1
     2    16     8    1
     3     8     9   ar
     4     9    10   ar
     5    10     1    1
     6     1     2    2
     7     2     3    1
     8     3    17    1
     9    17    18   ar
    10    18    19   ar
    11    19    20   ar
    12    20    21    1
    13    20    22   ar
    14    22    23   ar
    15     3    24    1
    16    24    25   ar
    17    25    26   ar
    18    26    27   ar
    19    27    28    1
    20    27    29   ar
    21    29    30   ar
    22     3     4    1
    23     4     5    1
    24     4     6    1
    25    10    11   ar
    26    11    12   ar
    27    12    13   ar
    28    13    14    2
    29    13     8   ar
    30     6     1    1
    31    23    17   ar
    32    30    24   ar
    33     6     7    1
@<TRIPOS>MOLECULE
*****
 30 33 0 0 0
SMALL
GASTEIGER

@<TRIPOS>ATOM
      1 C         139.8200  140.5908  166.1109 C.2     1  UNL1        0.3177
      2 N         139.7040  141.6644  165.0699 N.2     1  UNL1       -0.0615
      3 C         139.5251  141.0001  163.7369 C.3     1  UNL1        0.2514
      4 C         139.5305  139.5159  163.9542 C.3     1  UNL1        0.2097
      5 C         139.3800  138.4686  162.8909 C.3     1  UNL1        0.0559
      6 N         139.7128  139.2629  165.4214 N.pl3   1  UNL1       -0.2182
      7 H         139.7547  138.3804  165.8556 H       1  UNL1        0.2923
      8 N         139.3898  140.2330  170.0399 N.ar    1  UNL1       -0.1396
      9 C         139.2000  140.0168  168.5678 C.ar    1  UNL1        0.1275
     10 C         140.0100  140.8069  167.5831 C.ar    1  UNL1        0.1024
     11 C         141.0098  141.8132  168.0705 C.ar    1  UNL1        0.0140
     12 C         141.1997  142.0293  169.5427 C.ar    1  UNL1        0.0640
     13 C         140.3897  141.2392  170.5274 C.ar    1  UNL1        0.2925
     14 O         140.5796  141.4554  171.9995 O.2     1  UNL1       -0.2640
     15 C         137.1219  139.1976  170.7711 C.3     1  UNL1        0.2864
     16 O         138.5798  139.4428  171.0246 O.3     1  UNL1       -0.3880
     17 C         139.4803  142.4069  163.2183 C.ar    1  UNL1        0.0297
     18 C         138.2181  143.2090  163.3339 C.ar    1  UNL1        0.0025
     19 C         138.1734  144.6159  162.8153 C.ar    1  UNL1        0.0295
     20 C         139.3908  145.2205  162.1811 C.ar    1  UNL1        0.1401
     21 F         139.3461  146.6273  161.6624 F       1  UNL1       -0.2042
     22 C         140.6530  144.4183  162.0655 C.ar    1  UNL1        0.0295
     23 C         140.6978  143.0116  162.5841 C.ar    1  UNL1        0.0025
     24 C         139.3368  140.6300  162.2956 C.ar    1  UNL1        0.0488
     25 C         137.9548  140.5333  161.7204 C.ar    1  UNL1        0.0057
     26 C         137.7665  140.1631  160.2790 C.ar    1  UNL1        0.0495
     27 C         138.9603  139.8896  159.4128 C.ar    1  UNL1        0.2223
     28 F         138.7720  139.5194  157.9715 F       1  UNL1       -0.1832
     29 N         140.3422  139.9862  159.9880 N.ar    1  UNL1       -0.2166
     30 C         140.5305  140.3564  161.4294 C.ar    1  UNL1        0.1014
@<TRIPOS>BOND
     1    15    16    1
     2    16     8    1
     3     8     9   ar
     4     9    10   ar
     5    10     1    1
     6     1     2    2
     7     2     3    1
     8     3    17    1
     9    17    18   ar
    10    18    19   ar
    11    19    20   ar
    12    20    21    1
    13    20    22   ar
    14    22    23   ar
    15     3    24    1
    16    24    25   ar
    17    25    26   ar
    18    26    27   ar
    19    27    28    1
    20    27    29   ar
    21    29    30   ar
    22     3     4    1
    23     4     5    1
    24     4     6    1
    25    10    11   ar
    26    11    12   ar
    27    12    13   ar
    28    13    14    2
    29    13     8   ar
    30     6     1    1
    31    23    17   ar
    32    30    24   ar
    33     6     7    1
@<TRIPOS>MOLECULE
*****
 30 33 0 0 0
SMALL
GASTEIGER

@<TRIPOS>ATOM
      1 C         142.3763  141.1348  166.1537 C.2     1  UNL1        0.3177
      2 N         141.9343  142.1656  165.1576 N.2     1  UNL1       -0.0615
      3 C         142.6347  141.8871  163.8607 C.3     1  UNL1        0.2514
      4 C         143.5094  140.6842  164.0552 C.3     1  UNL1        0.2097
      5 C         144.3894  140.0564  163.0152 C.3     1  UNL1        0.0559
      6 N         143.3497  140.2192  165.4724 N.pl3   1  UNL1       -0.2182
      7 H         143.8040  139.4485  165.8832 H       1  UNL1        0.2923
      8 N         140.6306  142.0278  169.6041 N.ar    1  UNL1       -0.1396
      9 C         141.0827  142.1258  168.1773 C.ar    1  UNL1        0.1275
     10 C         141.9241  141.0367  167.5806 C.ar    1  UNL1        0.1024
     11 C         142.3134  139.8496  168.4108 C.ar    1  UNL1        0.0140
     12 C         141.8612  139.7516  169.8376 C.ar    1  UNL1        0.0640
     13 C         141.0198  140.8407  170.4343 C.ar    1  UNL1        0.2925
     14 O         140.5677  140.7426  171.8612 O.2     1  UNL1       -0.2640
     15 C         140.2622  144.5396  170.1564 C.3     1  UNL1        0.2864
     16 O         139.7892  143.1168  170.2008 O.3     1  UNL1       -0.3880
     17 C         141.8730  143.0841  163.3738 C.ar    1  UNL1        0.0297
     18 C         142.3047  144.4628  163.7774 C.ar    1  UNL1        0.0025
     19 C         141.5430  145.6598  163.2904 C.ar    1  UNL1        0.0295
     20 C         140.3498  145.4781  162.3999 C.ar    1  UNL1        0.1401
     21 F         139.5882  146.6751  161.9129 F       1  UNL1       -0.2042
     22 C         139.9182  144.0994  161.9963 C.ar    1  UNL1        0.0295
     23 C         140.6798  142.9024  162.4832 C.ar    1  UNL1        0.0025
     24 C         143.1758  141.8589  162.4620 C.ar    1  UNL1        0.0488
     25 C         142.5067  141.0174  161.4158 C.ar    1  UNL1        0.0057
     26 C         143.0479  140.9892  160.0171 C.ar    1  UNL1        0.0495
     27 C         144.2581  141.8024  159.6646 C.ar    1  UNL1        0.2223
     28 F         144.7992  141.7742  158.2659 F       1  UNL1       -0.1832
     29 N         144.9271  142.6438  160.7107 N.ar    1  UNL1       -0.2166
     30 C         144.3859  142.6720  162.1095 C.ar    1  UNL1        0.1014
@<TRIPOS>BOND
     1    15    16    1
     2    16     8    1
     3     8     9   ar
     4     9    10   ar
     5    10     1    1
     6     1     2    2
     7     2     3    1
     8     3    17    1
     9    17    18   ar
    10    18    19   ar
    11    19    20   ar
    12    20    21    1
    13    20    22   ar
    14    22    23   ar
    15     3    24    1
    16    24    25   ar
    17    25    26   ar
    18    26    27   ar
    19    27    28    1
    20    27    29   ar
    21    29    30   ar
    22     3     4    1
    23     4     5    1
    24     4     6    1
    25    10    11   ar
    26    11    12   ar
    27    12    13   ar
    28    13    14    2
    29    13     8   ar
    30     6     1    1
    31    23    17   ar
    32    30    24   ar
    33     6     7    1
@<TRIPOS>MOLECULE
*****
 30 33 0 0 0
SMALL
GASTEIGER

@<TRIPOS>ATOM
      1 C         142.4765  139.5916  162.9786 C.2     1  UNL1        0.3177
      2 N         141.4735  140.5569  163.5373 N.2     1  UNL1       -0.0615
      3 C         141.5376  140.4776  165.0338 C.3     1  UNL1        0.2514
      4 C         142.5802  139.4632  165.4000 C.3     1  UNL1        0.2097
      5 C         142.9735  139.0662  166.7920 C.3     1  UNL1        0.0559
      6 N         143.1604  138.9157  164.1298 N.pl3   1  UNL1       -0.2182
      7 H         143.8663  138.2326  164.0634 H       1  UNL1        0.2923
      8 N         143.6828  140.1587  159.2405 N.ar    1  UNL1       -0.1396
      9 C         143.4115  140.4049  160.6951 C.ar    1  UNL1        0.1275
     10 C         142.7478  139.3454  161.5240 C.ar    1  UNL1        0.1024
     11 C         142.3556  138.0398  160.8984 C.ar    1  UNL1        0.0140
     12 C         142.6270  137.7936  159.4438 C.ar    1  UNL1        0.0640
     13 C         143.2906  138.8531  158.6149 C.ar    1  UNL1        0.2925
     14 O         143.5620  138.6069  157.1603 O.2     1  UNL1       -0.2640
     15 C         144.1102  142.6675  158.7177 C.3     1  UNL1        0.2864
     16 O         144.3465  141.2182  158.4116 O.3     1  UNL1       -0.3880
     17 C         140.4614  141.5210  164.9781 C.ar    1  UNL1        0.0297
     18 C         140.7953  142.9580  165.2490 C.ar    1  UNL1        0.0025
     19 C         139.7189  144.0014  165.1933 C.ar    1  UNL1        0.0295
     20 C         138.3090  143.6077  164.8666 C.ar    1  UNL1        0.1401
     21 F         137.2326  144.6511  164.8109 F       1  UNL1       -0.2042
     22 C         137.9751  142.1707  164.5957 C.ar    1  UNL1        0.0295
     23 C         139.0513  141.1273  164.6515 C.ar    1  UNL1        0.0025
     24 C         141.3768  140.6164  166.5187 C.ar    1  UNL1        0.0488
     25 C         140.2568  139.9077  167.2213 C.ar    1  UNL1        0.0057
     26 C         140.0960  140.0465  168.7062 C.ar    1  UNL1        0.0495
     27 C         141.0552  140.8940  169.4885 C.ar    1  UNL1        0.2223
     28 F         140.8943  141.0328  170.9733 F       1  UNL1       -0.1832
     29 N         142.1750  141.6027  168.7859 N.ar    1  UNL1       -0.2166
     30 C         142.3358  141.4638  167.3010 C.ar    1  UNL1        0.1014
@<TRIPOS>BOND
     1    15    16    1
     2    16     8    1
     3     8     9   ar
     4     9    10   ar
     5    10     1    1
     6     1     2    2
     7     2     3    1
     8     3    17    1
     9    17    18   ar
    10    18    19   ar
    11    19    20   ar
    12    20    21    1
    13    20    22   ar
    14    22    23   ar
    15     3    24    1
    16    24    25   ar
    17    25    26   ar
    18    26    27   ar
    19    27    28    1
    20    27    29   ar
    21    29    30   ar
    22     3     4    1
    23     4     5    1
    24     4     6    1
    25    10    11   ar
    26    11    12   ar
    27    12    13   ar
    28    13    14    2
    29    13     8   ar
    30     6     1    1
    31    23    17   ar
    32    30    24   ar
    33     6     7    1
@<TRIPOS>MOLECULE
*****
 30 33 0 0 0
SMALL
GASTEIGER

@<TRIPOS>ATOM
      1 C         142.5974  142.0780  163.4813 C.2     1  UNL1        0.3177
      2 N         141.6909  141.0427  164.0782 N.2     1  UNL1       -0.0615
      3 C         141.8460  141.0950  165.5693 C.3     1  UNL1        0.2514
      4 C         142.8483  142.1628  165.8939 C.3     1  UNL1        0.2097
      5 C         143.3058  142.5543  167.2677 C.3     1  UNL1        0.0559
      6 N         143.3127  142.7703  164.6035 N.pl3   1  UNL1       -0.2182
      7 H         143.9713  143.4960  164.5095 H       1  UNL1        0.2923
      8 N         142.3955  143.9443  159.9847 N.ar    1  UNL1       -0.1396
      9 C         142.2328  143.6524  161.4470 C.ar    1  UNL1        0.1275
     10 C         142.7601  142.3699  162.0189 C.ar    1  UNL1        0.1024
     11 C         143.4500  141.3793  161.1287 C.ar    1  UNL1        0.0140
     12 C         143.6127  141.6712  159.6664 C.ar    1  UNL1        0.0640
     13 C         143.0854  142.9537  159.0944 C.ar    1  UNL1        0.2925
     14 O         143.2481  143.2456  157.6320 O.2     1  UNL1       -0.2640
     15 C         140.4926  145.2725  158.8164 C.3     1  UNL1        0.2864
     16 O         141.8682  145.2268  159.4127 O.3     1  UNL1       -0.3880
     17 C         140.8318  139.9900  165.5558 C.ar    1  UNL1        0.0297
     18 C         139.4611  140.2230  166.1189 C.ar    1  UNL1        0.0025
     19 C         138.4469  139.1179  166.1054 C.ar    1  UNL1        0.0295
     20 C         138.8034  137.7798  165.5289 C.ar    1  UNL1        0.1401
     21 F         137.7892  136.6747  165.5154 F       1  UNL1       -0.2042
     22 C         140.1740  137.5468  164.9659 C.ar    1  UNL1        0.0295
     23 C         141.1882  138.6518  164.9793 C.ar    1  UNL1        0.0025
     24 C         141.7890  140.9164  167.0575 C.ar    1  UNL1        0.0488
     25 C         142.5715  139.8164  167.7114 C.ar    1  UNL1        0.0057
     26 C         142.5145  139.6377  169.1996 C.ar    1  UNL1        0.0495
     27 C         141.6749  140.5593  170.0340 C.ar    1  UNL1        0.2223
     28 F         141.6179  140.3807  171.5222 F       1  UNL1       -0.1832
     29 N         140.8924  141.6593  169.3801 N.ar    1  UNL1       -0.2166
     30 C         140.9495  141.8379  167.8918 C.ar    1  UNL1        0.1014
@<TRIPOS>BOND
     1    15    16    1
     2    16     8    1
     3     8     9   ar
     4     9    10   ar
     5    10     1    1
     6     1     2    2
     7     2     3    1
     8     3    17    1
     9    17    18   ar
    10    18    19   ar
    11    19    20   ar
    12    20    21    1
    13    20    22   ar
    14    22    23   ar
    15     3    24    1
    16    24    25   ar
    17    25    26   ar
    18    26    27   ar
    19    27    28    1
    20    27    29   ar
    21    29    30   ar
    22     3     4    1
    23     4     5    1
    24     4     6    1
    25    10    11   ar
    26    11    12   ar
    27    12    13   ar
    28    13    14    2
    29    13     8   ar
    30     6     1    1
    31    23    17   ar
    32    30    24   ar
    33     6     7    1
@<TRIPOS>MOLECULE
*****
 30 33 0 0 0
SMALL
GASTEIGER

@<TRIPOS>ATOM
      1 C         142.6924  138.8569  161.2470 C.2     1  UNL1        0.3177
      2 N         142.9402  140.0518  162.1192 N.2     1  UNL1       -0.0615
      3 C         142.6243  139.6664  163.5341 C.3     1  UNL1        0.2514
      4 C         142.1813  138.2333  163.5363 C.3     1  UNL1        0.2097
      5 C         141.7686  137.4399  164.7405 C.3     1  UNL1        0.0559
      6 N         142.2233  137.7330  162.1228 N.pl3   1  UNL1       -0.2182
      7 H         141.9849  136.8262  161.8226 H       1  UNL1        0.2923
      8 N         142.7817  137.4637  157.5320 N.ar    1  UNL1       -0.1396
      9 C         142.5935  137.5243  159.0189 C.ar    1  UNL1        0.1275
     10 C         142.8806  138.7964  159.7601 C.ar    1  UNL1        0.1024
     11 C         143.3557  140.0080  159.0143 C.ar    1  UNL1        0.0140
     12 C         143.5439  139.9475  157.5274 C.ar    1  UNL1        0.0640
     13 C         143.2569  138.6753  156.7863 C.ar    1  UNL1        0.2925
     14 O         143.4450  138.6148  155.2993 O.2     1  UNL1       -0.2640
     15 C         143.6182  135.2692  156.4212 C.3     1  UNL1        0.2864
     16 O         142.4946  136.1916  156.7909 O.3     1  UNL1       -0.3880
     17 C         143.0186  141.0808  163.8411 C.ar    1  UNL1        0.0297
     18 C         142.0414  142.1968  163.6188 C.ar    1  UNL1        0.0025
     19 C         142.4357  143.6112  163.9258 C.ar    1  UNL1        0.0295
     20 C         143.8071  143.9094  164.4551 C.ar    1  UNL1        0.1401
     21 F         144.2014  145.3238  164.7622 F       1  UNL1       -0.2042
     22 C         144.7843  142.7933  164.6774 C.ar    1  UNL1        0.0295
     23 C         144.3900  141.3790  164.3704 C.ar    1  UNL1        0.0025
     24 C         142.3909  139.5767  165.0131 C.ar    1  UNL1        0.0488
     25 C         141.0960  140.0570  165.5985 C.ar    1  UNL1        0.0057
     26 C         140.8625  139.9673  167.0775 C.ar    1  UNL1        0.0495
     27 C         141.9241  139.3973  167.9711 C.ar    1  UNL1        0.2223
     28 F         141.6906  139.3076  169.4501 F       1  UNL1       -0.1832
     29 N         143.2189  138.9171  167.3857 N.ar    1  UNL1       -0.2166
     30 C         143.4523  139.0068  165.9066 C.ar    1  UNL1        0.1014
@<TRIPOS>BOND
     1    15    16    1
     2    16     8    1
     3     8     9   ar
     4     9    10   ar
     5    10     1    1
     6     1     2    2
     7     2     3    1
     8     3    17    1
     9    17    18   ar
    10    18    19   ar
    11    19    20   ar
    12    20    21    1
    13    20    22   ar
    14    22    23   ar
    15     3    24    1
    16    24    25   ar
    17    25    26   ar
    18    26    27   ar
    19    27    28    1
    20    27    29   ar
    21    29    30   ar
    22     3     4    1
    23     4     5    1
    24     4     6    1
    25    10    11   ar
    26    11    12   ar
    27    12    13   ar
    28    13    14    2
    29    13     8   ar
    30     6     1    1
    31    23    17   ar
    32    30    24   ar
    33     6     7    1
