@<TRIPOS>MOLECULE
*****
 32 35 0 0 0
SMALL
GASTEIGER

@<TRIPOS>ATOM
      1 O         141.7013  141.1126  162.6080 O.2     1  UNL1       -0.2729
      2 C         142.2509  142.5077  162.6455 C.2     1  UNL1        0.2451
      3 N         143.4276  142.8270  163.5193 N.am    1  UNL1       -0.2988
      4 H         143.7884  143.7427  163.5439 H       1  UNL1        0.1498
      5 C         141.6238  143.5836  161.8092 C.3     1  UNL1        0.1752
      6 C         141.9619  143.9010  160.3827 C.ar    1  UNL1        0.0089
      7 C         142.9465  143.2966  159.4262 C.ar    1  UNL1       -0.0021
      8 C         143.0649  143.8356  158.0314 C.ar    1  UNL1       -0.0003
      9 C         142.1987  144.9791  157.5932 C.ar    1  UNL1        0.0001
     10 C         141.2140  145.5836  158.5498 C.ar    1  UNL1        0.0043
     11 C         141.0956  145.0445  159.9445 C.ar    1  UNL1        0.0516
     12 C         140.2222  145.4338  161.1002 C.2     1  UNL1        0.2494
     13 O         139.2016  146.5330  161.1030 O.2     1  UNL1       -0.2699
     14 N         140.5487  144.5309  162.2527 N.am    1  UNL1       -0.2636
     15 C         139.9118  144.5686  163.6103 C.3     1  UNL1        0.1238
     16 C         139.4484  143.2970  164.2569 C.3     1  UNL1        0.1351
     17 C         139.9223  142.7531  165.5721 C.3     1  UNL1        0.0339
     18 C         139.1965  141.4659  165.8300 C.3     1  UNL1        0.0346
     19 C         138.2740  141.2143  164.6742 C.3     1  UNL1        0.1422
     20 O         138.4297  142.3460  163.7020 O.3     1  UNL1       -0.3545
     21 C         144.0547  141.7512  164.3555 C.3     1  UNL1        0.1164
     22 C         143.3741  141.2817  165.6071 C.ar    1  UNL1       -0.0024
     23 C         142.8655  139.8738  165.7013 C.ar    1  UNL1        0.0005
     24 C         142.1849  139.4044  166.9529 C.ar    1  UNL1        0.0369
     25 C         142.0129  140.3430  168.1103 C.ar    1  UNL1        0.1468
     26 C         142.5216  141.7510  168.0161 C.ar    1  UNL1        0.0369
     27 C         143.2022  142.2204  166.7644 C.ar    1  UNL1        0.0005
     28 O         141.3324  139.8736  169.3619 O.3     1  UNL1       -0.4045
     29 C         139.9850  140.4188  169.7326 C.3     1  UNL1        0.5753
     30 F         138.6377  140.9640  170.1034 F       1  UNL1       -0.1328
     31 F         139.3716  139.6914  168.5731 F       1  UNL1       -0.1328
     32 F         140.5985  141.1462  170.8922 F       1  UNL1       -0.1328
@<TRIPOS>BOND
     1     1     2    2
     2     2     3   am
     3     3    21    1
     4    21    22    1
     5    22    23   ar
     6    23    24   ar
     7    24    25   ar
     8    25    28    1
     9    28    29    1
    10    29    30    1
    11    29    31    1
    12    29    32    1
    13    25    26   ar
    14    26    27   ar
    15     2     5    1
    16     5     6    1
    17     6     7   ar
    18     7     8   ar
    19     8     9   ar
    20     9    10   ar
    21    10    11   ar
    22    11    12    1
    23    12    13    2
    24    12    14   am
    25    14    15    1
    26    16    15    1
    27    16    17    1
    28    17    18    1
    29    18    19    1
    30    19    20    1
    31    27    22   ar
    32    14     5    1
    33    20    16    1
    34    11     6   ar
    35     3     4    1
@<TRIPOS>MOLECULE
*****
 32 35 0 0 0
SMALL
GASTEIGER

@<TRIPOS>ATOM
      1 O         143.0145  140.6812  162.4155 O.2     1  UNL1       -0.2729
      2 C         142.0093  139.5689  162.4628 C.2     1  UNL1        0.2451
      3 N         141.9843  138.6299  163.6324 N.am    1  UNL1       -0.2988
      4 H         141.3246  137.8998  163.6635 H       1  UNL1        0.1498
      5 C         141.0290  139.3955  161.3407 C.3     1  UNL1        0.1752
      6 C         141.3188  138.7792  160.0043 C.ar    1  UNL1        0.0089
      7 C         142.5695  138.1933  159.4192 C.ar    1  UNL1       -0.0021
      8 C         142.5572  137.6390  158.0254 C.ar    1  UNL1       -0.0003
      9 C         141.2943  137.6706  157.2168 C.ar    1  UNL1        0.0001
     10 C         140.0435  138.2565  157.8019 C.ar    1  UNL1        0.0043
     11 C         140.0558  138.8108  159.1957 C.ar    1  UNL1        0.0516
     12 C         138.9855  139.4466  160.0324 C.2     1  UNL1        0.2494
     13 O         137.5634  139.6801  159.6164 O.2     1  UNL1       -0.2699
     14 N         139.5870  139.8080  161.3582 N.am    1  UNL1       -0.2636
     15 C         138.8720  140.4664  162.5007 C.3     1  UNL1        0.1238
     16 C         138.6900  139.7309  163.7952 C.3     1  UNL1        0.1351
     17 C         138.1429  140.3073  165.0674 C.3     1  UNL1        0.0339
     18 C         138.1380  139.2225  166.1034 C.3     1  UNL1        0.0346
     19 C         138.6821  137.9756  165.4715 C.3     1  UNL1        0.1422
     20 O         139.0233  138.2898  164.0450 O.3     1  UNL1       -0.3545
     21 C         142.9646  138.8033  164.7545 C.3     1  UNL1        0.1164
     22 C         142.5370  139.4721  166.0272 C.ar    1  UNL1       -0.0024
     23 C         142.9997  138.9349  167.3490 C.ar    1  UNL1        0.0005
     24 C         142.5720  139.6038  168.6216 C.ar    1  UNL1        0.0369
     25 C         141.6816  140.8099  168.5725 C.ar    1  UNL1        0.1468
     26 C         141.2189  141.3472  167.2507 C.ar    1  UNL1        0.0369
     27 C         141.6466  140.6783  165.9780 C.ar    1  UNL1        0.0005
     28 O         141.2540  141.4788  169.8452 O.3     1  UNL1       -0.4045
     29 C         140.9178  142.9406  169.8480 C.3     1  UNL1        0.5753
     30 F         140.5816  144.4024  169.8509 F       1  UNL1       -0.1328
     31 F         142.3667  143.2742  169.6495 F       1  UNL1       -0.1328
     32 F         139.4689  142.6070  170.0466 F       1  UNL1       -0.1328
@<TRIPOS>BOND
     1     1     2    2
     2     2     3   am
     3     3    21    1
     4    21    22    1
     5    22    23   ar
     6    23    24   ar
     7    24    25   ar
     8    25    28    1
     9    28    29    1
    10    29    30    1
    11    29    31    1
    12    29    32    1
    13    25    26   ar
    14    26    27   ar
    15     2     5    1
    16     5     6    1
    17     6     7   ar
    18     7     8   ar
    19     8     9   ar
    20     9    10   ar
    21    10    11   ar
    22    11    12    1
    23    12    13    2
    24    12    14   am
    25    14    15    1
    26    16    15    1
    27    16    17    1
    28    17    18    1
    29    18    19    1
    30    19    20    1
    31    27    22   ar
    32    14     5    1
    33    20    16    1
    34    11     6   ar
    35     3     4    1
@<TRIPOS>MOLECULE
*****
 32 35 0 0 0
SMALL
GASTEIGER

@<TRIPOS>ATOM
      1 O         140.7346  136.7967  163.0901 O.2     1  UNL1       -0.2729
      2 C         140.9937  138.1767  162.5625 C.2     1  UNL1        0.2451
      3 N         141.8731  139.1198  163.3289 N.am    1  UNL1       -0.2988
      4 H         142.0433  140.0255  162.9827 H       1  UNL1        0.1498
      5 C         140.3736  138.6137  161.2684 C.3     1  UNL1        0.1752
      6 C         141.0193  138.5512  159.9160 C.ar    1  UNL1        0.0089
      7 C         142.3695  138.0743  159.4694 C.ar    1  UNL1       -0.0021
      8 C         142.7441  138.1350  158.0183 C.ar    1  UNL1       -0.0003
      9 C         141.7685  138.6726  157.0136 C.ar    1  UNL1        0.0001
     10 C         140.4183  139.1494  157.4602 C.ar    1  UNL1        0.0043
     11 C         140.0437  139.0888  158.9113 C.ar    1  UNL1        0.0516
     12 C         138.7951  139.4834  159.6430 C.2     1  UNL1        0.2494
     13 O         137.5595  140.0689  159.0261 O.2     1  UNL1       -0.2699
     14 N         138.9990  139.1898  161.0997 N.am    1  UNL1       -0.2636
     15 C         138.0031  139.4301  162.1954 C.3     1  UNL1        0.1238
     16 C         137.8658  140.7970  162.7976 C.3     1  UNL1        0.1351
     17 C         137.9620  141.1313  164.2567 C.3     1  UNL1        0.0339
     18 C         137.7639  142.6106  164.4074 C.3     1  UNL1        0.0346
     19 C         137.5453  143.1905  163.0413 C.3     1  UNL1        0.1422
     20 O         137.6083  142.0696  162.0465 O.3     1  UNL1       -0.3545
     21 C         142.4933  138.6828  164.6230 C.3     1  UNL1        0.1164
     22 C         142.1059  139.3571  165.9056 C.ar    1  UNL1       -0.0024
     23 C         142.9476  139.1735  167.1335 C.ar    1  UNL1        0.0005
     24 C         142.5602  139.8479  168.4161 C.ar    1  UNL1        0.0369
     25 C         141.3310  140.7059  168.4709 C.ar    1  UNL1        0.1468
     26 C         140.4893  140.8895  167.2430 C.ar    1  UNL1        0.0369
     27 C         140.8767  140.2151  165.9603 C.ar    1  UNL1        0.0005
     28 O         140.9436  141.3802  169.7535 O.3     1  UNL1       -0.4045
     29 C         140.6750  142.8558  169.7737 C.3     1  UNL1        0.5753
     30 F         140.4063  144.3314  169.7940 F       1  UNL1       -0.1328
     31 F         142.0340  143.1112  169.1926 F       1  UNL1       -0.1328
     32 F         139.3159  142.6004  170.3549 F       1  UNL1       -0.1328
@<TRIPOS>BOND
     1     1     2    2
     2     2     3   am
     3     3    21    1
     4    21    22    1
     5    22    23   ar
     6    23    24   ar
     7    24    25   ar
     8    25    28    1
     9    28    29    1
    10    29    30    1
    11    29    31    1
    12    29    32    1
    13    25    26   ar
    14    26    27   ar
    15     2     5    1
    16     5     6    1
    17     6     7   ar
    18     7     8   ar
    19     8     9   ar
    20     9    10   ar
    21    10    11   ar
    22    11    12    1
    23    12    13    2
    24    12    14   am
    25    14    15    1
    26    16    15    1
    27    16    17    1
    28    17    18    1
    29    18    19    1
    30    19    20    1
    31    27    22   ar
    32    14     5    1
    33    20    16    1
    34    11     6   ar
    35     3     4    1
@<TRIPOS>MOLECULE
*****
 32 35 0 0 0
SMALL
GASTEIGER

@<TRIPOS>ATOM
      1 O         141.9458  141.9898  164.5772 O.2     1  UNL1       -0.2729
      2 C         142.1118  140.8669  165.5576 C.2     1  UNL1        0.2451
      3 N         143.3386  140.0049  165.5100 N.am    1  UNL1       -0.2988
      4 H         143.4475  139.2678  166.1535 H       1  UNL1        0.1498
      5 C         141.0511  140.6058  166.5856 C.3     1  UNL1        0.1752
      6 C         140.8848  141.3352  167.8857 C.ar    1  UNL1        0.0089
      7 C         141.6581  142.4569  168.5133 C.ar    1  UNL1       -0.0021
      8 C         141.2479  142.9931  169.8528 C.ar    1  UNL1       -0.0003
      9 C         140.0646  142.4075  170.5647 C.ar    1  UNL1        0.0001
     10 C         139.2913  141.2859  169.9371 C.ar    1  UNL1        0.0043
     11 C         139.7015  140.7497  168.5977 C.ar    1  UNL1        0.0516
     12 C         139.1364  139.6584  167.7375 C.2     1  UNL1        0.2494
     13 O         137.9462  138.8058  168.0636 O.2     1  UNL1       -0.2699
     14 N         139.9705  139.5695  166.4940 N.am    1  UNL1       -0.2636
     15 C         139.7609  138.6123  165.3583 C.3     1  UNL1        0.1238
     16 C         138.9791  139.0398  164.1517 C.3     1  UNL1        0.1351
     17 C         138.3337  140.3785  163.9481 C.3     1  UNL1        0.0339
     18 C         137.6611  140.3698  162.6073 C.3     1  UNL1        0.0346
     19 C         137.8908  139.0257  161.9823 C.3     1  UNL1        0.1422
     20 O         138.7053  138.2037  162.9367 O.3     1  UNL1       -0.3545
     21 C         144.3992  140.2660  164.4820 C.3     1  UNL1        0.1164
     22 C         144.1668  139.8827  163.0506 C.ar    1  UNL1       -0.0024
     23 C         144.3425  140.9010  161.9634 C.ar    1  UNL1        0.0005
     24 C         144.1100  140.5176  160.5320 C.ar    1  UNL1        0.0369
     25 C         143.7018  139.1159  160.1877 C.ar    1  UNL1        0.1468
     26 C         143.5260  138.0975  161.2749 C.ar    1  UNL1        0.0369
     27 C         143.7585  138.4809  162.7064 C.ar    1  UNL1        0.0005
     28 O         143.4693  138.7326  158.7563 O.3     1  UNL1       -0.4045
     29 C         142.1240  138.2297  158.3234 C.3     1  UNL1        0.5753
     30 F         140.7788  137.7268  157.8906 F       1  UNL1       -0.1328
     31 F         141.5065  139.5366  158.7241 F       1  UNL1       -0.1328
     32 F         142.7415  136.9227  157.9228 F       1  UNL1       -0.1328
@<TRIPOS>BOND
     1     1     2    2
     2     2     3   am
     3     3    21    1
     4    21    22    1
     5    22    23   ar
     6    23    24   ar
     7    24    25   ar
     8    25    28    1
     9    28    29    1
    10    29    30    1
    11    29    31    1
    12    29    32    1
    13    25    26   ar
    14    26    27   ar
    15     2     5    1
    16     5     6    1
    17     6     7   ar
    18     7     8   ar
    19     8     9   ar
    20     9    10   ar
    21    10    11   ar
    22    11    12    1
    23    12    13    2
    24    12    14   am
    25    14    15    1
    26    16    15    1
    27    16    17    1
    28    17    18    1
    29    18    19    1
    30    19    20    1
    31    27    22   ar
    32    14     5    1
    33    20    16    1
    34    11     6   ar
    35     3     4    1
@<TRIPOS>MOLECULE
*****
 32 35 0 0 0
SMALL
GASTEIGER

@<TRIPOS>ATOM
      1 O         137.4430  142.8464  162.9130 O.2     1  UNL1       -0.2729
      2 C         138.8161  142.4605  162.4486 C.2     1  UNL1        0.2451
      3 N         139.6083  141.4426  163.2143 N.am    1  UNL1       -0.2988
      4 H         140.5095  141.1893  162.9096 H       1  UNL1        0.1498
      5 C         139.3970  143.0925  161.2185 C.3     1  UNL1        0.1752
      6 C         139.0983  142.7016  159.8015 C.ar    1  UNL1        0.0089
      7 C         138.2035  141.6484  159.2182 C.ar    1  UNL1       -0.0021
      8 C         138.1058  141.4875  157.7301 C.ar    1  UNL1       -0.0003
      9 C         138.9028  142.3797  156.8253 C.ar    1  UNL1        0.0001
     10 C         139.7975  143.4329  157.4086 C.ar    1  UNL1        0.0043
     11 C         139.8953  143.5938  158.8967 C.ar    1  UNL1        0.0516
     12 C         140.6865  144.5362  159.7545 C.2     1  UNL1        0.2494
     13 O         141.6216  145.6014  159.2635 O.2     1  UNL1       -0.2699
     14 N         140.3786  144.2264  161.1895 N.am    1  UNL1       -0.2636
     15 C         140.9516  144.9273  162.3854 C.3     1  UNL1        0.1238
     16 C         142.0834  144.3054  163.1483 C.3     1  UNL1        0.1351
     17 C         143.0952  145.0384  163.9784 C.3     1  UNL1        0.0339
     18 C         144.0394  144.0272  164.5583 C.3     1  UNL1        0.0346
     19 C         143.6111  142.6692  164.0865 C.3     1  UNL1        0.1422
     20 O         142.4023  142.8411  163.2152 O.3     1  UNL1       -0.3545
     21 C         139.0274  140.8106  164.4444 C.3     1  UNL1        0.1164
     22 C         139.6593  141.0547  165.7827 C.ar    1  UNL1       -0.0024
     23 C         140.4389  142.3129  166.0258 C.ar    1  UNL1        0.0005
     24 C         141.0708  142.5569  167.3641 C.ar    1  UNL1        0.0369
     25 C         140.9231  141.5428  168.4595 C.ar    1  UNL1        0.1468
     26 C         140.1435  140.2846  168.2164 C.ar    1  UNL1        0.0369
     27 C         139.5115  140.0405  166.8780 C.ar    1  UNL1        0.0005
     28 O         141.5550  141.7869  169.7978 O.3     1  UNL1       -0.4045
     29 C         143.0053  142.1596  169.8857 C.3     1  UNL1        0.5753
     30 F         144.4555  142.5324  169.9736 F       1  UNL1       -0.1328
     31 F         143.3865  140.7867  169.4170 F       1  UNL1       -0.1328
     32 F         142.6240  143.5326  170.3544 F       1  UNL1       -0.1328
@<TRIPOS>BOND
     1     1     2    2
     2     2     3   am
     3     3    21    1
     4    21    22    1
     5    22    23   ar
     6    23    24   ar
     7    24    25   ar
     8    25    28    1
     9    28    29    1
    10    29    30    1
    11    29    31    1
    12    29    32    1
    13    25    26   ar
    14    26    27   ar
    15     2     5    1
    16     5     6    1
    17     6     7   ar
    18     7     8   ar
    19     8     9   ar
    20     9    10   ar
    21    10    11   ar
    22    11    12    1
    23    12    13    2
    24    12    14   am
    25    14    15    1
    26    16    15    1
    27    16    17    1
    28    17    18    1
    29    18    19    1
    30    19    20    1
    31    27    22   ar
    32    14     5    1
    33    20    16    1
    34    11     6   ar
    35     3     4    1
@<TRIPOS>MOLECULE
*****
 32 35 0 0 0
SMALL
GASTEIGER

@<TRIPOS>ATOM
      1 O         142.8443  142.5670  165.1895 O.2     1  UNL1       -0.2729
      2 C         141.3661  142.7369  165.3792 C.2     1  UNL1        0.2451
      3 N         140.6570  143.8967  164.7451 N.am    1  UNL1       -0.2988
      4 H         139.6868  144.0083  164.8695 H       1  UNL1        0.1498
      5 C         140.5970  141.7471  166.2030 C.3     1  UNL1        0.1752
      6 C         140.4674  141.7555  167.6974 C.ar    1  UNL1        0.0089
      7 C         141.0171  142.6748  168.7474 C.ar    1  UNL1       -0.0021
      8 C         140.7122  142.4274  170.1950 C.ar    1  UNL1       -0.0003
      9 C         139.8576  141.2606  170.5927 C.ar    1  UNL1        0.0001
     10 C         139.3078  140.3412  169.5427 C.ar    1  UNL1        0.0043
     11 C         139.6127  140.5887  168.0951 C.ar    1  UNL1        0.0516
     12 C         139.2142  139.8592  166.8465 C.2     1  UNL1        0.2494
     13 O         138.3577  138.6296  166.7791 O.2     1  UNL1       -0.2699
     14 N         139.8225  140.5751  165.6771 N.am    1  UNL1       -0.2636
     15 C         139.6811  140.1871  164.2351 C.3     1  UNL1        0.1238
     16 C         139.1305  141.1698  163.2446 C.3     1  UNL1        0.1351
     17 C         139.3959  141.1763  161.7682 C.3     1  UNL1        0.0339
     18 C         138.6472  142.3291  161.1676 C.3     1  UNL1        0.0346
     19 C         137.9190  143.0350  162.2729 C.3     1  UNL1        0.1422
     20 O         138.2177  142.3186  163.5564 O.3     1  UNL1       -0.3545
     21 C         141.4262  144.8866  163.9212 C.3     1  UNL1        0.1164
     22 C         141.4154  144.7858  162.4247 C.ar    1  UNL1       -0.0024
     23 C         142.3593  143.8504  161.7291 C.ar    1  UNL1        0.0005
     24 C         142.3485  143.7497  160.2325 C.ar    1  UNL1        0.0369
     25 C         141.3937  144.5844  159.4315 C.ar    1  UNL1        0.1468
     26 C         140.4498  145.5199  160.1271 C.ar    1  UNL1        0.0369
     27 C         140.4606  145.6206  161.6237 C.ar    1  UNL1        0.0005
     28 O         141.3829  144.4837  157.9349 O.3     1  UNL1       -0.4045
     29 C         140.9749  145.6658  157.1065 C.3     1  UNL1        0.5753
     30 F         140.5669  146.8478  156.2781 F       1  UNL1       -0.1328
     31 F         142.3148  146.2961  157.3460 F       1  UNL1       -0.1328
     32 F         139.6350  145.0355  156.8671 F       1  UNL1       -0.1328
@<TRIPOS>BOND
     1     1     2    2
     2     2     3   am
     3     3    21    1
     4    21    22    1
     5    22    23   ar
     6    23    24   ar
     7    24    25   ar
     8    25    28    1
     9    28    29    1
    10    29    30    1
    11    29    31    1
    12    29    32    1
    13    25    26   ar
    14    26    27   ar
    15     2     5    1
    16     5     6    1
    17     6     7   ar
    18     7     8   ar
    19     8     9   ar
    20     9    10   ar
    21    10    11   ar
    22    11    12    1
    23    12    13    2
    24    12    14   am
    25    14    15    1
    26    16    15    1
    27    16    17    1
    28    17    18    1
    29    18    19    1
    30    19    20    1
    31    27    22   ar
    32    14     5    1
    33    20    16    1
    34    11     6   ar
    35     3     4    1
@<TRIPOS>MOLECULE
*****
 32 35 0 0 0
SMALL
GASTEIGER

@<TRIPOS>ATOM
      1 O         144.9753  139.2353  163.8950 O.2     1  UNL1       -0.2729
      2 C         143.7235  139.3389  163.0752 C.2     1  UNL1        0.2451
      3 N         142.4317  138.7921  163.6066 N.am    1  UNL1       -0.2988
      4 H         141.6100  138.8601  163.0686 H       1  UNL1        0.1498
      5 C         143.7634  139.9893  161.7241 C.3     1  UNL1        0.1752
      6 C         143.4130  139.3356  160.4203 C.ar    1  UNL1        0.0089
      7 C         142.9527  137.9479  160.0851 C.ar    1  UNL1       -0.0021
      8 C         142.6731  137.5744  158.6595 C.ar    1  UNL1       -0.0003
      9 C         142.8538  138.5885  157.5692 C.ar    1  UNL1        0.0001
     10 C         143.3141  139.9762  157.9044 C.ar    1  UNL1        0.0043
     11 C         143.5937  140.3497  159.3300 C.ar    1  UNL1        0.0516
     12 C         144.0558  141.6302  159.9600 C.2     1  UNL1        0.2494
     13 O         144.3597  142.9089  159.2371 O.2     1  UNL1       -0.2699
     14 N         144.1607  141.4074  161.4396 N.am    1  UNL1       -0.2636
     15 C         144.5879  142.4243  162.4562 C.3     1  UNL1        0.1238
     16 C         143.5715  143.3344  163.0797 C.3     1  UNL1        0.1351
     17 C         143.6293  144.8330  163.1075 C.3     1  UNL1        0.0339
     18 C         142.4123  145.3305  163.8298 C.3     1  UNL1        0.0346
     19 C         141.6024  144.1392  164.2483 C.3     1  UNL1        0.1422
     20 O         142.3188  142.9056  163.7848 O.3     1  UNL1       -0.3545
     21 C         142.3918  138.1418  164.9577 C.3     1  UNL1        0.1164
     22 C         142.0134  138.9459  166.1661 C.ar    1  UNL1       -0.0024
     23 C         142.9719  139.0726  167.3129 C.ar    1  UNL1        0.0005
     24 C         142.5934  139.8767  168.5213 C.ar    1  UNL1        0.0369
     25 C         141.2565  140.5541  168.5829 C.ar    1  UNL1        0.1468
     26 C         140.2980  140.4273  167.4361 C.ar    1  UNL1        0.0369
     27 C         140.6765  139.6232  166.2276 C.ar    1  UNL1        0.0005
     28 O         140.8781  141.3581  169.7913 O.3     1  UNL1       -0.4045
     29 C         140.5836  142.8227  169.6557 C.3     1  UNL1        0.5753
     30 F         140.2890  144.2872  169.5200 F       1  UNL1       -0.1328
     31 F         141.8857  143.0180  168.9372 F       1  UNL1       -0.1328
     32 F         139.2814  142.6273  170.3741 F       1  UNL1       -0.1328
@<TRIPOS>BOND
     1     1     2    2
     2     2     3   am
     3     3    21    1
     4    21    22    1
     5    22    23   ar
     6    23    24   ar
     7    24    25   ar
     8    25    28    1
     9    28    29    1
    10    29    30    1
    11    29    31    1
    12    29    32    1
    13    25    26   ar
    14    26    27   ar
    15     2     5    1
    16     5     6    1
    17     6     7   ar
    18     7     8   ar
    19     8     9   ar
    20     9    10   ar
    21    10    11   ar
    22    11    12    1
    23    12    13    2
    24    12    14   am
    25    14    15    1
    26    16    15    1
    27    16    17    1
    28    17    18    1
    29    18    19    1
    30    19    20    1
    31    27    22   ar
    32    14     5    1
    33    20    16    1
    34    11     6   ar
    35     3     4    1
@<TRIPOS>MOLECULE
*****
 32 35 0 0 0
SMALL
GASTEIGER

@<TRIPOS>ATOM
      1 O         137.6352  143.8926  162.4765 O.2     1  UNL1       -0.2729
      2 C         138.5424  142.9702  161.7176 C.2     1  UNL1        0.2451
      3 N         138.6487  141.5277  162.1156 N.am    1  UNL1       -0.2988
      4 H         139.2441  140.9223  161.6175 H       1  UNL1        0.1498
      5 C         139.3434  143.4900  160.5608 C.3     1  UNL1        0.1752
      6 C         139.1903  143.0783  159.1266 C.ar    1  UNL1        0.0089
      7 C         138.2694  142.1030  158.4551 C.ar    1  UNL1       -0.0021
      8 C         138.3486  141.8961  156.9716 C.ar    1  UNL1       -0.0003
      9 C         139.3487  142.6645  156.1595 C.ar    1  UNL1        0.0001
     10 C         140.2696  143.6397  156.8310 C.ar    1  UNL1        0.0043
     11 C         140.1904  143.8466  158.3145 C.ar    1  UNL1        0.0516
     12 C         140.9616  144.7331  159.2468 C.2     1  UNL1        0.2494
     13 O         142.0629  145.6748  158.8590 O.2     1  UNL1       -0.2699
     14 N         140.4381  144.5127  160.6352 N.am    1  UNL1       -0.2636
     15 C         140.9241  145.1953  161.8794 C.3     1  UNL1        0.1238
     16 C         141.8672  144.4853  162.8047 C.3     1  UNL1        0.1351
     17 C         142.9003  145.1332  163.6782 C.3     1  UNL1        0.0339
     18 C         143.6145  144.0510  164.4324 C.3     1  UNL1        0.0346
     19 C         143.0229  142.7341  164.0249 C.3     1  UNL1        0.1422
     20 O         141.9430  143.0025  163.0190 O.3     1  UNL1       -0.3545
     21 C         137.8477  141.0079  163.2724 C.3     1  UNL1        0.1164
     22 C         138.4724  140.9077  164.6323 C.ar    1  UNL1       -0.0024
     23 C         138.2407  139.6895  165.4763 C.ar    1  UNL1        0.0005
     24 C         138.8655  139.5895  166.8363 C.ar    1  UNL1        0.0369
     25 C         139.7221  140.7075  167.3524 C.ar    1  UNL1        0.1468
     26 C         139.9538  141.9257  166.5084 C.ar    1  UNL1        0.0369
     27 C         139.3289  142.0258  165.1483 C.ar    1  UNL1        0.0005
     28 O         140.3468  140.6073  168.7124 O.3     1  UNL1       -0.4045
     29 C         140.0023  141.6117  169.7719 C.3     1  UNL1        0.5753
     30 F         139.6578  142.6161  170.8314 F       1  UNL1       -0.1328
     31 F         138.6886  140.9236  169.9970 F       1  UNL1       -0.1328
     32 F         141.3160  142.2998  169.5468 F       1  UNL1       -0.1328
@<TRIPOS>BOND
     1     1     2    2
     2     2     3   am
     3     3    21    1
     4    21    22    1
     5    22    23   ar
     6    23    24   ar
     7    24    25   ar
     8    25    28    1
     9    28    29    1
    10    29    30    1
    11    29    31    1
    12    29    32    1
    13    25    26   ar
    14    26    27   ar
    15     2     5    1
    16     5     6    1
    17     6     7   ar
    18     7     8   ar
    19     8     9   ar
    20     9    10   ar
    21    10    11   ar
    22    11    12    1
    23    12    13    2
    24    12    14   am
    25    14    15    1
    26    16    15    1
    27    16    17    1
    28    17    18    1
    29    18    19    1
    30    19    20    1
    31    27    22   ar
    32    14     5    1
    33    20    16    1
    34    11     6   ar
    35     3     4    1
@<TRIPOS>MOLECULE
*****
 32 35 0 0 0
SMALL
GASTEIGER

@<TRIPOS>ATOM
      1 O         145.3254  141.5496  163.1509 O.2     1  UNL1       -0.2729
      2 C         144.0164  141.6056  162.4207 C.2     1  UNL1        0.2451
      3 N         142.9205  142.5035  162.9136 N.am    1  UNL1       -0.2988
      4 H         142.0612  142.5403  162.4344 H       1  UNL1        0.1498
      5 C         143.8031  140.7637  161.1977 C.3     1  UNL1        0.1752
      6 C         143.7608  141.2593  159.7826 C.ar    1  UNL1        0.0089
      7 C         143.9056  142.6318  159.1951 C.ar    1  UNL1       -0.0021
      8 C         143.8159  142.8254  157.7104 C.ar    1  UNL1       -0.0003
      9 C         143.5813  141.6464  156.8132 C.ar    1  UNL1        0.0001
     10 C         143.4365  140.2739  157.4006 C.ar    1  UNL1        0.0043
     11 C         143.5262  140.0804  158.8854 C.ar    1  UNL1        0.0516
     12 C         143.4235  138.8561  159.7460 C.2     1  UNL1        0.2494
     13 O         143.1906  137.4555  159.2624 O.2     1  UNL1       -0.2699
     14 N         143.5946  139.2784  161.1751 N.am    1  UNL1       -0.2636
     15 C         143.5628  138.3742  162.3715 C.3     1  UNL1        0.1238
     16 C         142.6546  138.6866  163.5237 C.3     1  UNL1        0.1351
     17 C         143.0679  138.8291  164.9587 C.3     1  UNL1        0.0339
     18 C         141.8423  139.1418  165.7652 C.3     1  UNL1        0.0346
     19 C         140.6717  139.1926  164.8286 C.3     1  UNL1        0.1422
     20 O         141.1737  138.9112  163.4434 O.3     1  UNL1       -0.3545
     21 C         143.1337  143.3454  164.1366 C.3     1  UNL1        0.1164
     22 C         142.5594  142.9141  165.4534 C.ar    1  UNL1       -0.0024
     23 C         141.0750  142.9370  165.6679 C.ar    1  UNL1        0.0005
     24 C         140.5007  142.5057  166.9847 C.ar    1  UNL1        0.0369
     25 C         141.4107  142.0514  168.0872 C.ar    1  UNL1        0.1468
     26 C         142.8951  142.0285  167.8728 C.ar    1  UNL1        0.0369
     27 C         143.4695  142.4598  166.5559 C.ar    1  UNL1        0.0005
     28 O         140.8364  141.6201  169.4040 O.3     1  UNL1       -0.4045
     29 C         140.0423  142.5888  170.2293 C.3     1  UNL1        0.5753
     30 F         139.2482  143.5574  171.0547 F       1  UNL1       -0.1328
     31 F         138.8952  141.6227  170.2595 F       1  UNL1       -0.1328
     32 F         141.1894  143.5548  170.1991 F       1  UNL1       -0.1328
@<TRIPOS>BOND
     1     1     2    2
     2     2     3   am
     3     3    21    1
     4    21    22    1
     5    22    23   ar
     6    23    24   ar
     7    24    25   ar
     8    25    28    1
     9    28    29    1
    10    29    30    1
    11    29    31    1
    12    29    32    1
    13    25    26   ar
    14    26    27   ar
    15     2     5    1
    16     5     6    1
    17     6     7   ar
    18     7     8   ar
    19     8     9   ar
    20     9    10   ar
    21    10    11   ar
    22    11    12    1
    23    12    13    2
    24    12    14   am
    25    14    15    1
    26    16    15    1
    27    16    17    1
    28    17    18    1
    29    18    19    1
    30    19    20    1
    31    27    22   ar
    32    14     5    1
    33    20    16    1
    34    11     6   ar
    35     3     4    1
