@<TRIPOS>MOLECULE
*****
 22 25 0 0 0
SMALL
GASTEIGER

@<TRIPOS>ATOM
      1 C         141.7484  141.8954  170.5549 C.3     1  UNL1        0.0897
      2 N         141.7305  142.1263  169.0729 N.3     1  UNL1       -0.2709
      3 C         140.4756  142.6030  168.4033 C.3     1  UNL1        0.0765
      4 C         140.4576  142.8339  166.9213 C.3     1  UNL1        0.0394
      5 C         141.6943  142.5881  166.1088 C.2     1  UNL1       -0.0414
      6 C         141.6762  142.8190  164.6268 C.2     1  UNL1       -0.0078
      7 C         142.9645  142.5433  163.9095 C.ar    1  UNL1       -0.0006
      8 C         144.0312  142.0804  164.8570 C.ar    1  UNL1       -0.0000
      9 C         145.4004  141.7499  164.3413 C.ar    1  UNL1       -0.0000
     10 C         145.7028  141.8822  162.8781 C.ar    1  UNL1       -0.0000
     11 C         144.6361  142.3450  161.9306 C.ar    1  UNL1       -0.0000
     12 C         143.2669  142.6755  162.4462 C.ar    1  UNL1       -0.0000
     13 C         142.3559  143.1162  161.3390 C.2     1  UNL1       -0.0000
     14 C         140.9174  143.5333  161.4215 C.2     1  UNL1       -0.0000
     15 C         140.0347  143.6129  162.6316 C.ar    1  UNL1       -0.0000
     16 C         138.6548  144.0796  162.2737 C.ar    1  UNL1       -0.0000
     17 C         137.6126  144.2283  163.3422 C.ar    1  UNL1       -0.0000
     18 C         137.9503  143.9104  164.7687 C.ar    1  UNL1       -0.0000
     19 C         139.3302  143.4437  165.1266 C.ar    1  UNL1       -0.0000
     20 C         140.3724  143.2950  164.0582 C.ar    1  UNL1       -0.0006
     21 C         142.9491  142.1113  166.7784 C.3     1  UNL1        0.0394
     22 C         142.9671  141.8805  168.2604 C.3     1  UNL1        0.0765
@<TRIPOS>BOND
     1     1     2    1
     2     2     3    1
     3     3     4    1
     4     4     5    1
     5     5     6    2
     6     6     7    1
     7     7     8   ar
     8     8     9   ar
     9     9    10   ar
    10    10    11   ar
    11    11    12   ar
    12    12    13    1
    13    13    14    2
    14    14    15    1
    15    15    16   ar
    16    16    17   ar
    17    17    18   ar
    18    18    19   ar
    19    19    20   ar
    20     5    21    1
    21    21    22    1
    22    22     2    1
    23    20     6    1
    24    12     7   ar
    25    20    15   ar
@<TRIPOS>MOLECULE
*****
 22 25 0 0 0
SMALL
GASTEIGER

@<TRIPOS>ATOM
      1 C         141.8184  141.8667  170.6259 C.3     1  UNL1        0.0897
      2 N         141.7852  142.1049  169.1453 N.3     1  UNL1       -0.2709
      3 C         143.0138  141.8639  168.3192 C.3     1  UNL1        0.0765
      4 C         142.9807  142.1021  166.8386 C.3     1  UNL1        0.0394
      5 C         141.7189  142.5812  166.1840 C.2     1  UNL1       -0.0414
      6 C         141.6857  142.8193  164.7034 C.2     1  UNL1       -0.0078
      7 C         140.3759  143.2972  164.1503 C.ar    1  UNL1       -0.0006
      8 C         139.3444  143.4399  165.2300 C.ar    1  UNL1       -0.0000
      9 C         137.9607  143.9073  164.8882 C.ar    1  UNL1       -0.0000
     10 C         137.6085  144.2320  163.4668 C.ar    1  UNL1       -0.0000
     11 C         138.6399  144.0893  162.3871 C.ar    1  UNL1       -0.0000
     12 C         140.0236  143.6219  162.7289 C.ar    1  UNL1       -0.0000
     13 C         140.8942  143.5489  161.5095 C.2     1  UNL1       -0.0000
     14 C         142.3320  143.1332  161.4104 C.2     1  UNL1       -0.0000
     15 C         143.2544  142.6878  162.5063 C.ar    1  UNL1       -0.0000
     16 C         144.6186  142.3608  161.9752 C.ar    1  UNL1       -0.0000
     17 C         145.6952  141.8940  162.9097 C.ar    1  UNL1       -0.0000
     18 C         145.4076  141.7544  164.3752 C.ar    1  UNL1       -0.0000
     19 C         144.0434  142.0814  164.9062 C.ar    1  UNL1       -0.0000
     20 C         142.9668  142.5481  163.9718 C.ar    1  UNL1       -0.0006
     21 C         140.4902  142.8221  167.0102 C.3     1  UNL1        0.0394
     22 C         140.5235  142.5839  168.4908 C.3     1  UNL1        0.0765
@<TRIPOS>BOND
     1     1     2    1
     2     2     3    1
     3     3     4    1
     4     4     5    1
     5     5     6    2
     6     6     7    1
     7     7     8   ar
     8     8     9   ar
     9     9    10   ar
    10    10    11   ar
    11    11    12   ar
    12    12    13    1
    13    13    14    2
    14    14    15    1
    15    15    16   ar
    16    16    17   ar
    17    17    18   ar
    18    18    19   ar
    19    19    20   ar
    20     5    21    1
    21    21    22    1
    22    22     2    1
    23    20     6    1
    24    12     7   ar
    25    20    15   ar
@<TRIPOS>MOLECULE
*****
 22 25 0 0 0
SMALL
GASTEIGER

@<TRIPOS>ATOM
      1 C         143.4493  141.5680  170.1538 C.3     1  UNL1        0.0897
      2 N         142.6368  141.4106  168.9028 N.3     1  UNL1       -0.2709
      3 C         142.6793  140.1206  168.1384 C.3     1  UNL1        0.0765
      4 C         141.8669  139.9631  166.8873 C.3     1  UNL1        0.0394
      5 C         141.0120  141.0956  166.4006 C.2     1  UNL1       -0.0414
      6 C         140.1996  140.9381  165.1495 C.2     1  UNL1       -0.0078
      7 C         139.3804  142.1299  164.7512 C.ar    1  UNL1       -0.0006
      8 C         139.5532  143.2622  165.7197 C.ar    1  UNL1       -0.0000
      9 C         138.8187  144.5521  165.5042 C.ar    1  UNL1       -0.0000
     10 C         137.9114  144.7098  164.3201 C.ar    1  UNL1       -0.0000
     11 C         137.7386  143.5775  163.3516 C.ar    1  UNL1       -0.0000
     12 C         138.4730  142.2875  163.5672 C.ar    1  UNL1       -0.0000
     13 C         138.1609  141.2924  162.4891 C.2     1  UNL1       -0.0000
     14 C         138.6789  139.8938  162.3287 C.2     1  UNL1       -0.0000
     15 C         139.6371  139.1450  163.2069 C.ar    1  UNL1       -0.0000
     16 C         139.8926  137.7622  162.6849 C.ar    1  UNL1       -0.0000
     17 C         140.8250  136.8441  163.4183 C.ar    1  UNL1       -0.0000
     18 C         141.5017  137.3088  164.6736 C.ar    1  UNL1       -0.0000
     19 C         141.2462  138.6916  165.1956 C.ar    1  UNL1       -0.0000
     20 C         140.3139  139.6097  164.4623 C.ar    1  UNL1       -0.0006
     21 C         140.9696  142.3855  167.1651 C.3     1  UNL1        0.0394
     22 C         141.7820  142.5430  168.4161 C.3     1  UNL1        0.0765
@<TRIPOS>BOND
     1     1     2    1
     2     2     3    1
     3     3     4    1
     4     4     5    1
     5     5     6    2
     6     6     7    1
     7     7     8   ar
     8     8     9   ar
     9     9    10   ar
    10    10    11   ar
    11    11    12   ar
    12    12    13    1
    13    13    14    2
    14    14    15    1
    15    15    16   ar
    16    16    17   ar
    17    17    18   ar
    18    18    19   ar
    19    19    20   ar
    20     5    21    1
    21    21    22    1
    22    22     2    1
    23    20     6    1
    24    12     7   ar
    25    20    15   ar
@<TRIPOS>MOLECULE
*****
 22 25 0 0 0
SMALL
GASTEIGER

@<TRIPOS>ATOM
      1 C         143.3742  141.5068  170.1930 C.3     1  UNL1        0.0897
      2 N         142.5808  141.3626  168.9282 N.3     1  UNL1       -0.2709
      3 C         141.7363  142.5017  168.4387 C.3     1  UNL1        0.0765
      4 C         140.9428  142.3576  167.1740 C.3     1  UNL1        0.0394
      5 C         140.9938  141.0745  166.3987 C.2     1  UNL1       -0.0414
      6 C         140.2003  140.9304  165.1339 C.2     1  UNL1       -0.0078
      7 C         140.3217  139.6079  164.4365 C.ar    1  UNL1       -0.0006
      8 C         141.2404  138.6809  165.1758 C.ar    1  UNL1       -0.0000
      9 C         141.5004  137.3021  164.6453 C.ar    1  UNL1       -0.0000
     10 C         140.8419  136.8505  163.3756 C.ar    1  UNL1       -0.0000
     11 C         139.9232  137.7776  162.6363 C.ar    1  UNL1       -0.0000
     12 C         139.6632  139.1563  163.1667 C.ar    1  UNL1       -0.0000
     13 C         138.7205  139.9156  162.2808 C.2     1  UNL1       -0.0000
     14 C         138.2035  141.3140  162.4457 C.2     1  UNL1       -0.0000
     15 C         138.5016  142.2985  163.5375 C.ar    1  UNL1       -0.0000
     16 C         137.7738  143.5923  163.3224 C.ar    1  UNL1       -0.0000
     17 C         137.9346  144.7155  164.3036 C.ar    1  UNL1       -0.0000
     18 C         138.8232  144.5448  165.4999 C.ar    1  UNL1       -0.0000
     19 C         139.5510  143.2510  165.7150 C.ar    1  UNL1       -0.0000
     20 C         139.3903  142.1279  164.7339 C.ar    1  UNL1       -0.0006
     21 C         141.8382  139.9355  166.8882 C.3     1  UNL1        0.0394
     22 C         142.6317  140.0796  168.1530 C.3     1  UNL1        0.0765
@<TRIPOS>BOND
     1     1     2    1
     2     2     3    1
     3     3     4    1
     4     4     5    1
     5     5     6    2
     6     6     7    1
     7     7     8   ar
     8     8     9   ar
     9     9    10   ar
    10    10    11   ar
    11    11    12   ar
    12    12    13    1
    13    13    14    2
    14    14    15    1
    15    15    16   ar
    16    16    17   ar
    17    17    18   ar
    18    18    19   ar
    19    19    20   ar
    20     5    21    1
    21    21    22    1
    22    22     2    1
    23    20     6    1
    24    12     7   ar
    25    20    15   ar
@<TRIPOS>MOLECULE
*****
 22 25 0 0 0
SMALL
GASTEIGER

@<TRIPOS>ATOM
      1 C         144.1108  144.8824  162.8291 C.3     1  UNL1        0.0897
      2 N         143.1958  143.8343  163.3897 N.3     1  UNL1       -0.2709
      3 C         142.8544  143.8404  164.8504 C.3     1  UNL1        0.0765
      4 C         141.9394  142.7924  165.4111 C.3     1  UNL1        0.0394
      5 C         141.3657  141.7383  164.5111 C.2     1  UNL1       -0.0414
      6 C         140.4507  140.6902  165.0718 C.2     1  UNL1       -0.0078
      7 C         139.9329  139.6841  164.0871 C.ar    1  UNL1       -0.0006
      8 C         140.4570  139.9483  162.7068 C.ar    1  UNL1       -0.0000
      9 C         140.0592  139.0545  161.5697 C.ar    1  UNL1       -0.0000
     10 C         139.1373  137.8966  161.8131 C.ar    1  UNL1       -0.0000
     11 C         138.6132  137.6324  163.1934 C.ar    1  UNL1       -0.0000
     12 C         139.0110  138.5261  164.3305 C.ar    1  UNL1       -0.0000
     13 C         138.3792  138.0884  165.6186 C.2     1  UNL1       -0.0000
     14 C         138.5132  138.7004  166.9815 C.2     1  UNL1       -0.0000
     15 C         139.3123  139.9014  167.3929 C.ar    1  UNL1       -0.0000
     16 C         139.1707  140.1773  168.8604 C.ar    1  UNL1       -0.0000
     17 C         139.8914  141.3389  169.4782 C.ar    1  UNL1       -0.0000
     18 C         140.7536  142.2244  168.6283 C.ar    1  UNL1       -0.0000
     19 C         140.8952  141.9485  167.1607 C.ar    1  UNL1       -0.0000
     20 C         140.1745  140.7870  166.5430 C.ar    1  UNL1       -0.0006
     21 C         141.7072  141.7323  163.0505 C.3     1  UNL1        0.0394
     22 C         142.6222  142.7803  162.4899 C.3     1  UNL1        0.0765
@<TRIPOS>BOND
     1     1     2    1
     2     2     3    1
     3     3     4    1
     4     4     5    1
     5     5     6    2
     6     6     7    1
     7     7     8   ar
     8     8     9   ar
     9     9    10   ar
    10    10    11   ar
    11    11    12   ar
    12    12    13    1
    13    13    14    2
    14    14    15    1
    15    15    16   ar
    16    16    17   ar
    17    17    18   ar
    18    18    19   ar
    19    19    20   ar
    20     5    21    1
    21    21    22    1
    22    22     2    1
    23    20     6    1
    24    12     7   ar
    25    20    15   ar
@<TRIPOS>MOLECULE
*****
 22 25 0 0 0
SMALL
GASTEIGER

@<TRIPOS>ATOM
      1 C         144.1114  144.8860  162.8254 C.3     1  UNL1        0.0897
      2 N         143.1973  143.8363  163.3846 N.3     1  UNL1       -0.2709
      3 C         142.6262  142.7819  162.4834 C.3     1  UNL1        0.0765
      4 C         141.7121  141.7322  163.0424 C.3     1  UNL1        0.0394
      5 C         141.3692  141.7369  164.5027 C.2     1  UNL1       -0.0414
      6 C         140.4551  140.6871  165.0618 C.2     1  UNL1       -0.0078
      7 C         140.1772  140.7826  166.5328 C.ar    1  UNL1       -0.0006
      8 C         140.8956  141.9447  167.1519 C.ar    1  UNL1       -0.0000
      9 C         140.7521  142.2196  168.6195 C.ar    1  UNL1       -0.0000
     10 C         139.8902  141.3322  169.4679 C.ar    1  UNL1       -0.0000
     11 C         139.1719  140.1701  168.8488 C.ar    1  UNL1       -0.0000
     12 C         139.3154  139.8953  167.3812 C.ar    1  UNL1       -0.0000
     13 C         138.5186  138.6933  166.9682 C.2     1  UNL1       -0.0000
     14 C         138.3868  138.0819  165.6049 C.2     1  UNL1       -0.0000
     15 C         139.0193  138.5214  164.3177 C.ar    1  UNL1       -0.0000
     16 C         138.6239  137.6278  163.1797 C.ar    1  UNL1       -0.0000
     17 C         139.1491  137.8936  161.8000 C.ar    1  UNL1       -0.0000
     18 C         140.0695  139.0530  161.5583 C.ar    1  UNL1       -0.0000
     19 C         140.4649  139.9466  162.6963 C.ar    1  UNL1       -0.0000
     20 C         139.9398  139.6809  164.0760 C.ar    1  UNL1       -0.0006
     21 C         141.9404  142.7913  165.4039 C.3     1  UNL1        0.0394
     22 C         142.8544  143.8409  164.8448 C.3     1  UNL1        0.0765
@<TRIPOS>BOND
     1     1     2    1
     2     2     3    1
     3     3     4    1
     4     4     5    1
     5     5     6    2
     6     6     7    1
     7     7     8   ar
     8     8     9   ar
     9     9    10   ar
    10    10    11   ar
    11    11    12   ar
    12    12    13    1
    13    13    14    2
    14    14    15    1
    15    15    16   ar
    16    16    17   ar
    17    17    18   ar
    18    18    19   ar
    19    19    20   ar
    20     5    21    1
    21    21    22    1
    22    22     2    1
    23    20     6    1
    24    12     7   ar
    25    20    15   ar
@<TRIPOS>MOLECULE
*****
 22 25 0 0 0
SMALL
GASTEIGER

@<TRIPOS>ATOM
      1 C         145.2068  142.0133  162.2522 C.3     1  UNL1        0.0897
      2 N         144.2815  141.7317  163.3988 N.3     1  UNL1       -0.2709
      3 C         144.6003  142.2590  164.7665 C.3     1  UNL1        0.0765
      4 C         143.6751  141.9774  165.9132 C.3     1  UNL1        0.0394
      5 C         142.4312  141.1687  165.6922 C.2     1  UNL1       -0.0414
      6 C         141.5061  140.8872  166.8389 C.2     1  UNL1       -0.0078
      7 C         140.2919  140.0701  166.5099 C.ar    1  UNL1       -0.0006
      8 C         140.2599  139.6962  165.0577 C.ar    1  UNL1       -0.0000
      9 C         139.1252  138.8762  164.5192 C.ar    1  UNL1       -0.0000
     10 C         138.0224  138.4301  165.4330 C.ar    1  UNL1       -0.0000
     11 C         138.0545  138.8040  166.8853 C.ar    1  UNL1       -0.0000
     12 C         139.1892  139.6240  167.4237 C.ar    1  UNL1       -0.0000
     13 C         139.0284  139.8848  168.8921 C.2     1  UNL1       -0.0000
     14 C         139.9304  140.6561  169.8094 C.2     1  UNL1       -0.0000
     15 C         141.2162  141.3571  169.4847 C.ar    1  UNL1       -0.0000
     16 C         141.8056  142.0112  170.6992 C.ar    1  UNL1       -0.0000
     17 C         143.0962  142.7681  170.5916 C.ar    1  UNL1       -0.0000
     18 C         143.7974  142.8709  169.2697 C.ar    1  UNL1       -0.0000
     19 C         143.2080  142.2168  168.0552 C.ar    1  UNL1       -0.0000
     20 C         141.9175  141.4600  168.1627 C.ar    1  UNL1       -0.0006
     21 C         142.1126  140.6415  164.3245 C.3     1  UNL1        0.0394
     22 C         143.0378  140.9231  163.1779 C.3     1  UNL1        0.0765
@<TRIPOS>BOND
     1     1     2    1
     2     2     3    1
     3     3     4    1
     4     4     5    1
     5     5     6    2
     6     6     7    1
     7     7     8   ar
     8     8     9   ar
     9     9    10   ar
    10    10    11   ar
    11    11    12   ar
    12    12    13    1
    13    13    14    2
    14    14    15    1
    15    15    16   ar
    16    16    17   ar
    17    17    18   ar
    18    18    19   ar
    19    19    20   ar
    20     5    21    1
    21    21    22    1
    22    22     2    1
    23    20     6    1
    24    12     7   ar
    25    20    15   ar
@<TRIPOS>MOLECULE
*****
 22 25 0 0 0
SMALL
GASTEIGER

@<TRIPOS>ATOM
      1 C         142.8558  137.5846  159.3428 C.3     1  UNL1        0.0897
      2 N         142.5740  138.2254  160.6694 N.3     1  UNL1       -0.2709
      3 C         143.4684  139.3157  161.1806 C.3     1  UNL1        0.0765
      4 C         143.1867  139.9566  162.5073 C.3     1  UNL1        0.0394
      5 C         142.0105  139.5072  163.3226 C.2     1  UNL1       -0.0414
      6 C         141.7288  140.1481  164.6492 C.2     1  UNL1       -0.0078
      7 C         140.5294  139.6253  165.3829 C.ar    1  UNL1       -0.0006
      8 C         139.8448  138.5378  164.6093 C.ar    1  UNL1       -0.0000
      9 C         138.6195  137.8773  165.1681 C.ar    1  UNL1       -0.0000
     10 C         138.0788  138.3044  166.5005 C.ar    1  UNL1       -0.0000
     11 C         138.7634  139.3919  167.2741 C.ar    1  UNL1       -0.0000
     12 C         139.9887  140.0523  166.7154 C.ar    1  UNL1       -0.0000
     13 C         140.5139  141.1076  167.6431 C.2     1  UNL1       -0.0000
     14 C         141.7093  141.9966  167.4676 C.2     1  UNL1       -0.0000
     15 C         142.6749  142.0497  166.3209 C.ar    1  UNL1       -0.0000
     16 C         143.7342  143.0880  166.5442 C.ar    1  UNL1       -0.0000
     17 C         144.8021  143.3037  165.5132 C.ar    1  UNL1       -0.0000
     18 C         144.8108  142.4811  164.2589 C.ar    1  UNL1       -0.0000
     19 C         143.7515  141.4428  164.0356 C.ar    1  UNL1       -0.0000
     20 C         142.6836  141.2271  165.0666 C.ar    1  UNL1       -0.0006
     21 C         141.1161  138.4169  162.8113 C.3     1  UNL1        0.0394
     22 C         141.3979  137.7761  161.4847 C.3     1  UNL1        0.0765
@<TRIPOS>BOND
     1     1     2    1
     2     2     3    1
     3     3     4    1
     4     4     5    1
     5     5     6    2
     6     6     7    1
     7     7     8   ar
     8     8     9   ar
     9     9    10   ar
    10    10    11   ar
    11    11    12   ar
    12    12    13    1
    13    13    14    2
    14    14    15    1
    15    15    16   ar
    16    16    17   ar
    17    17    18   ar
    18    18    19   ar
    19    19    20   ar
    20     5    21    1
    21    21    22    1
    22    22     2    1
    23    20     6    1
    24    12     7   ar
    25    20    15   ar
@<TRIPOS>MOLECULE
*****
 22 25 0 0 0
SMALL
GASTEIGER

@<TRIPOS>ATOM
      1 C         139.7258  146.5138  161.6453 C.3     1  UNL1        0.0897
      2 N         139.6416  145.1977  162.3601 N.3     1  UNL1       -0.2709
      3 C         139.9219  145.1244  163.8318 C.3     1  UNL1        0.0765
      4 C         139.8377  143.8084  164.5467 C.3     1  UNL1        0.0394
      5 C         139.4732  142.5657  163.7898 C.2     1  UNL1       -0.0414
      6 C         139.3890  141.2496  164.5046 C.2     1  UNL1       -0.0078
      7 C         139.0171  140.0704  163.6554 C.ar    1  UNL1       -0.0006
      8 C         138.8015  140.4707  162.2260 C.ar    1  UNL1       -0.0000
      9 C         138.4210  139.4376  161.2072 C.ar    1  UNL1       -0.0000
     10 C         138.2560  138.0044  161.6177 C.ar    1  UNL1       -0.0000
     11 C         138.4716  137.6041  163.0472 C.ar    1  UNL1       -0.0000
     12 C         138.8521  138.6371  164.0660 C.ar    1  UNL1       -0.0000
     13 C         139.0184  138.0292  165.4272 C.2     1  UNL1       -0.0000
     14 C         139.3907  138.7042  166.7139 C.2     1  UNL1       -0.0000
     15 C         139.6886  140.1541  166.9573 C.ar    1  UNL1       -0.0000
     16 C         140.0195  140.4113  168.3975 C.ar    1  UNL1       -0.0000
     17 C         140.3496  141.8013  168.8546 C.ar    1  UNL1       -0.0000
     18 C         140.3489  142.9341  167.8714 C.ar    1  UNL1       -0.0000
     19 C         140.0180  142.6769  166.4311 C.ar    1  UNL1       -0.0000
     20 C         139.6879  141.2869  165.9741 C.ar    1  UNL1       -0.0006
     21 C         139.1929  142.6391  162.3179 C.3     1  UNL1        0.0394
     22 C         139.2772  143.9551  161.6032 C.3     1  UNL1        0.0765
@<TRIPOS>BOND
     1     1     2    1
     2     2     3    1
     3     3     4    1
     4     4     5    1
     5     5     6    2
     6     6     7    1
     7     7     8   ar
     8     8     9   ar
     9     9    10   ar
    10    10    11   ar
    11    11    12   ar
    12    12    13    1
    13    13    14    2
    14    14    15    1
    15    15    16   ar
    16    16    17   ar
    17    17    18   ar
    18    18    19   ar
    19    19    20   ar
    20     5    21    1
    21    21    22    1
    22    22     2    1
    23    20     6    1
    24    12     7   ar
    25    20    15   ar
