@<TRIPOS>MOLECULE
*****
 36 40 0 0 0
SMALL
GASTEIGER

@<TRIPOS>ATOM
      1 C         138.1058  142.3485  161.4456 C.3     1  UNL1        0.1455
      2 C         138.2014  140.8563  161.5648 C.3     1  UNL1        0.1034
      3 N         138.1088  140.2040  162.9123 N.3     1  UNL1       -0.2689
      4 C         137.9206  141.0440  164.1408 C.3     1  UNL1        0.0737
      5 C         137.8250  142.5362  164.0217 C.3     1  UNL1        0.0356
      6 C         137.9176  143.1884  162.6741 C.3     1  UNL1        0.0846
      7 C         138.4846  142.1714  158.8814 C.3     1  UNL1        0.1741
      8 O         138.1984  143.0008  160.0981 O.3     1  UNL1       -0.3508
      9 N         137.8221  144.6806  162.5549 N.3     1  UNL1       -0.2915
     10 H         137.2709  145.0048  163.3497 H       1  UNL1        0.1236
     11 C         139.0702  145.5122  162.5256 C.3     1  UNL1        0.1153
     12 C         140.4139  144.8467  162.4856 C.ar    1  UNL1        0.0782
     13 C         141.0914  144.4475  163.7629 C.ar    1  UNL1        0.0562
     14 C         142.4352  143.7821  163.7229 C.ar    1  UNL1        0.1752
     15 C         143.1014  143.5158  162.4057 C.ar    1  UNL1        0.1914
     16 C         142.4238  143.9151  161.1283 C.ar    1  UNL1        0.1384
     17 N         141.0801  144.5805  161.1683 N.ar    1  UNL1       -0.2434
     18 O         144.4451  142.8504  162.3657 O.3     1  UNL1       -0.4668
     19 C         145.1226  142.4512  163.6430 C.3     1  UNL1        0.2527
     20 C         144.4564  142.7174  164.9604 C.3     1  UNL1        0.2526
     21 O         143.1127  143.3828  165.0003 O.3     1  UNL1       -0.4683
     22 C         138.2044  138.7118  163.0314 C.3     1  UNL1        0.0970
     23 C         138.9824  138.0976  164.1573 C.3     1  UNL1        0.1263
     24 N         140.4389  138.4157  164.3235 N.ar    1  UNL1       -0.2941
     25 C         141.4050  138.1061  163.2187 C.ar    1  UNL1        0.2610
     26 O         140.9147  137.4784  161.9476 O.2     1  UNL1       -0.2670
     27 C         142.8614  138.4241  163.3849 C.ar    1  UNL1        0.0608
     28 C         143.3518  139.0517  164.6560 C.ar    1  UNL1        0.0063
     29 C         142.3856  139.3614  165.7609 C.ar    1  UNL1        0.0161
     30 C         142.8759  139.9890  167.0320 C.ar    1  UNL1        0.0021
     31 C         141.9098  140.2986  168.1368 C.ar    1  UNL1        0.0104
     32 C         140.4533  139.9806  167.9705 C.ar    1  UNL1        0.0699
     33 C         139.9630  139.3529  166.6995 C.ar    1  UNL1        0.0275
     34 C         140.9292  139.0433  165.5947 C.ar    1  UNL1        0.0631
     35 C         139.4872  140.2902  169.0755 C.1     1  UNL1        0.1005
     36 N         138.5210  140.5998  170.1803 N.1     1  UNL1       -0.1908
@<TRIPOS>BOND
     1     7     8    1
     2     1     8    1
     3     1     2    1
     4     2     3    1
     5     3    22    1
     6    22    23    1
     7    23    24    1
     8    24    25   ar
     9    25    26    2
    10    25    27   ar
    11    27    28   ar
    12    28    29   ar
    13    29    30   ar
    14    30    31   ar
    15    31    32   ar
    16    32    35    1
    17    35    36    3
    18    32    33   ar
    19    33    34   ar
    20     3     4    1
    21     4     5    1
    22     5     6    1
    23     6     9    1
    24     9    11    1
    25    11    12    1
    26    12    13   ar
    27    13    14   ar
    28    14    15   ar
    29    15    16   ar
    30    16    17   ar
    31    15    18    1
    32    18    19    1
    33    19    20    1
    34    20    21    1
    35     6     1    1
    36    17    12   ar
    37    34    24   ar
    38    21    14    1
    39    34    29   ar
    40     9    10    1
@<TRIPOS>MOLECULE
*****
 36 40 0 0 0
SMALL
GASTEIGER

@<TRIPOS>ATOM
      1 C         140.1122  144.3699  163.2138 C.3     1  UNL1        0.1455
      2 C         141.4477  144.6006  163.8566 C.3     1  UNL1        0.1034
      3 N         142.7051  144.2299  163.1275 N.3     1  UNL1       -0.2689
      4 C         142.6269  143.6284  161.7556 C.3     1  UNL1        0.0737
      5 C         141.2914  143.3976  161.1128 C.3     1  UNL1        0.0356
      6 C         140.0340  143.7684  161.8420 C.3     1  UNL1        0.0846
      7 C         138.8637  144.8654  165.4378 C.3     1  UNL1        0.1741
      8 O         138.8549  144.7406  163.9429 O.3     1  UNL1       -0.3508
      9 N         138.6985  143.5376  161.1992 N.3     1  UNL1       -0.2915
     10 H         138.6400  144.1749  160.4049 H       1  UNL1        0.1236
     11 C         138.3377  142.1743  160.6880 C.3     1  UNL1        0.1153
     12 C         138.4655  140.9789  161.5851 C.ar    1  UNL1        0.0782
     13 C         138.1438  141.0992  163.0453 C.ar    1  UNL1        0.0562
     14 C         138.2716  139.9039  163.9424 C.ar    1  UNL1        0.1752
     15 C         138.7211  138.5882  163.3794 C.ar    1  UNL1        0.1914
     16 C         139.0428  138.4679  161.9192 C.ar    1  UNL1        0.1384
     17 N         138.9151  139.6633  161.0221 N.ar    1  UNL1       -0.2434
     18 O         138.8489  137.3929  164.2765 O.3     1  UNL1       -0.4668
     19 C         138.5271  137.5131  165.7366 C.3     1  UNL1        0.2527
     20 C         138.0776  138.8288  166.2997 C.3     1  UNL1        0.2526
     21 O         137.9498  140.0242  165.4025 O.3     1  UNL1       -0.4683
     22 C         144.0406  144.4607  163.7703 C.3     1  UNL1        0.0970
     23 C         144.5074  143.5588  164.8743 C.3     1  UNL1        0.1263
     24 N         144.1697  142.0976  164.8425 N.ar    1  UNL1       -0.2941
     25 C         144.8547  141.1907  163.8636 C.ar    1  UNL1        0.2610
     26 O         145.8775  141.7448  162.9165 O.2     1  UNL1       -0.2670
     27 C         144.5170  139.7295  163.8318 C.ar    1  UNL1        0.0608
     28 C         143.4943  139.1753  164.7788 C.ar    1  UNL1        0.0063
     29 C         142.8093  140.0823  165.7578 C.ar    1  UNL1        0.0161
     30 C         141.7866  139.5281  166.7048 C.ar    1  UNL1        0.0021
     31 C         141.1016  140.4351  167.6836 C.ar    1  UNL1        0.0104
     32 C         141.4393  141.8962  167.7155 C.ar    1  UNL1        0.0699
     33 C         142.4620  142.4504  166.7684 C.ar    1  UNL1        0.0275
     34 C         143.1470  141.5434  165.7896 C.ar    1  UNL1        0.0631
     35 C         140.7542  142.8032  168.6944 C.1     1  UNL1        0.1005
     36 N         140.0692  143.7101  169.6732 N.1     1  UNL1       -0.1908
@<TRIPOS>BOND
     1     7     8    1
     2     1     8    1
     3     1     2    1
     4     2     3    1
     5     3    22    1
     6    22    23    1
     7    23    24    1
     8    24    25   ar
     9    25    26    2
    10    25    27   ar
    11    27    28   ar
    12    28    29   ar
    13    29    30   ar
    14    30    31   ar
    15    31    32   ar
    16    32    35    1
    17    35    36    3
    18    32    33   ar
    19    33    34   ar
    20     3     4    1
    21     4     5    1
    22     5     6    1
    23     6     9    1
    24     9    11    1
    25    11    12    1
    26    12    13   ar
    27    13    14   ar
    28    14    15   ar
    29    15    16   ar
    30    16    17   ar
    31    15    18    1
    32    18    19    1
    33    19    20    1
    34    20    21    1
    35     6     1    1
    36    17    12   ar
    37    34    24   ar
    38    21    14    1
    39    34    29   ar
    40     9    10    1
@<TRIPOS>MOLECULE
*****
 36 40 0 0 0
SMALL
GASTEIGER

@<TRIPOS>ATOM
      1 C         138.0925  141.2591  160.9099 C.3     1  UNL1        0.1455
      2 C         138.0912  142.6705  161.4177 C.3     1  UNL1        0.1034
      3 N         137.8829  142.9420  162.8781 N.3     1  UNL1       -0.2689
      4 C         137.6759  141.8020  163.8308 C.3     1  UNL1        0.0737
      5 C         137.6771  140.3906  163.3230 C.3     1  UNL1        0.0356
      6 C         137.8855  140.1191  161.8625 C.3     1  UNL1        0.0846
      7 C         139.6751  141.0875  158.8566 C.3     1  UNL1        0.1741
      8 O         138.3008  140.9877  159.4495 O.3     1  UNL1       -0.3508
      9 N         137.8867  138.7077  161.3547 N.3     1  UNL1       -0.2915
     10 H         137.3398  138.7040  160.4937 H       1  UNL1        0.1236
     11 C         139.1852  138.0229  161.0458 C.3     1  UNL1        0.1153
     12 C         140.3687  138.2180  161.9464 C.ar    1  UNL1        0.0782
     13 C         141.4417  139.1975  161.5734 C.ar    1  UNL1        0.0562
     14 C         142.6253  139.3925  162.4740 C.ar    1  UNL1        0.1752
     15 C         142.7359  138.6081  163.7477 C.ar    1  UNL1        0.1914
     16 C         141.6628  137.6286  164.1209 C.ar    1  UNL1        0.1384
     17 N         140.4793  137.4335  163.2202 N.ar    1  UNL1       -0.2434
     18 O         143.9194  138.8032  164.6483 O.3     1  UNL1       -0.4668
     19 C         144.9924  139.7827  164.2752 C.3     1  UNL1        0.2527
     20 C         144.8819  140.5671  163.0014 C.3     1  UNL1        0.2526
     21 O         143.6983  140.3721  162.1008 O.3     1  UNL1       -0.4683
     22 C         137.8816  144.3534  163.3859 C.3     1  UNL1        0.0970
     23 C         138.8680  144.7740  164.4348 C.3     1  UNL1        0.1263
     24 N         140.3254  144.4645  164.2609 N.ar    1  UNL1       -0.2941
     25 C         141.1054  145.1206  163.1604 C.ar    1  UNL1        0.2610
     26 O         140.4280  146.0863  162.2338 O.2     1  UNL1       -0.2670
     27 C         142.5628  144.8111  162.9865 C.ar    1  UNL1        0.0608
     28 C         143.2402  143.8454  163.9131 C.ar    1  UNL1        0.0063
     29 C         142.4602  143.1892  165.0136 C.ar    1  UNL1        0.0161
     30 C         143.1376  142.2236  165.9402 C.ar    1  UNL1        0.0021
     31 C         142.3576  141.5674  167.0406 C.ar    1  UNL1        0.0104
     32 C         140.9002  141.8770  167.2146 C.ar    1  UNL1        0.0699
     33 C         140.2228  142.8426  166.2880 C.ar    1  UNL1        0.0275
     34 C         141.0028  143.4988  165.1875 C.ar    1  UNL1        0.0631
     35 C         140.1203  141.2208  168.3151 C.1     1  UNL1        0.1005
     36 N         139.3403  140.5646  169.4156 N.1     1  UNL1       -0.1908
@<TRIPOS>BOND
     1     7     8    1
     2     1     8    1
     3     1     2    1
     4     2     3    1
     5     3    22    1
     6    22    23    1
     7    23    24    1
     8    24    25   ar
     9    25    26    2
    10    25    27   ar
    11    27    28   ar
    12    28    29   ar
    13    29    30   ar
    14    30    31   ar
    15    31    32   ar
    16    32    35    1
    17    35    36    3
    18    32    33   ar
    19    33    34   ar
    20     3     4    1
    21     4     5    1
    22     5     6    1
    23     6     9    1
    24     9    11    1
    25    11    12    1
    26    12    13   ar
    27    13    14   ar
    28    14    15   ar
    29    15    16   ar
    30    16    17   ar
    31    15    18    1
    32    18    19    1
    33    19    20    1
    34    20    21    1
    35     6     1    1
    36    17    12   ar
    37    34    24   ar
    38    21    14    1
    39    34    29   ar
    40     9    10    1
@<TRIPOS>MOLECULE
*****
 36 40 0 0 0
SMALL
GASTEIGER

@<TRIPOS>ATOM
      1 C         140.5668  144.4845  161.2406 C.3     1  UNL1        0.1455
      2 C         142.0366  144.1847  161.2488 C.3     1  UNL1        0.1034
      3 N         142.8173  144.2944  162.5249 N.3     1  UNL1       -0.2689
      4 C         142.1283  144.7039  163.7929 C.3     1  UNL1        0.0737
      5 C         140.6586  145.0037  163.7847 C.3     1  UNL1        0.0356
      6 C         139.8779  144.8940  162.5085 C.3     1  UNL1        0.0846
      7 C         140.3043  145.0152  158.7109 C.3     1  UNL1        0.1741
      8 O         139.7861  144.3749  159.9646 O.3     1  UNL1       -0.3508
      9 N         138.4081  145.1938  162.5004 N.3     1  UNL1       -0.2915
     10 H         138.1256  145.2555  161.5222 H       1  UNL1        0.1236
     11 C         137.4477  144.2562  163.1702 C.3     1  UNL1        0.1153
     12 C         137.6996  142.7778  163.1415 C.ar    1  UNL1        0.0782
     13 C         137.9005  142.0262  164.4239 C.ar    1  UNL1        0.0562
     14 C         138.1524  140.5478  164.3952 C.ar    1  UNL1        0.1752
     15 C         138.2033  139.8209  163.0841 C.ar    1  UNL1        0.1914
     16 C         138.0024  140.5726  161.8015 C.ar    1  UNL1        0.1384
     17 N         137.7505  142.0510  161.8302 N.ar    1  UNL1       -0.2434
     18 O         138.4552  138.3425  163.0554 O.3     1  UNL1       -0.4668
     19 C         138.6562  137.5909  164.3378 C.3     1  UNL1        0.2527
     20 C         138.6052  138.3177  165.6490 C.3     1  UNL1        0.2526
     21 O         138.3533  139.7962  165.6777 O.3     1  UNL1       -0.4683
     22 C         144.2870  143.9946  162.5331 C.3     1  UNL1        0.0970
     23 C         144.7914  142.7320  163.1668 C.3     1  UNL1        0.1263
     24 N         143.9300  141.5040  163.1810 N.ar    1  UNL1       -0.2941
     25 C         143.6976  140.7363  161.9136 C.ar    1  UNL1        0.2610
     26 O         144.3264  141.1965  160.6318 O.2     1  UNL1       -0.2670
     27 C         142.8363  139.5083  161.9278 C.ar    1  UNL1        0.0608
     28 C         142.2074  139.0481  163.2095 C.ar    1  UNL1        0.0063
     29 C         142.4399  139.8158  164.4770 C.ar    1  UNL1        0.0161
     30 C         141.8110  139.3556  165.7587 C.ar    1  UNL1        0.0021
     31 C         142.0435  140.1233  167.0261 C.ar    1  UNL1        0.0104
     32 C         142.9048  141.3513  167.0119 C.ar    1  UNL1        0.0699
     33 C         143.5337  141.8116  165.7303 C.ar    1  UNL1        0.0275
     34 C         143.3012  141.0438  164.4628 C.ar    1  UNL1        0.0631
     35 C         143.1373  142.1191  168.2795 C.1     1  UNL1        0.1005
     36 N         143.3698  142.8868  169.5469 N.1     1  UNL1       -0.1908
@<TRIPOS>BOND
     1     7     8    1
     2     1     8    1
     3     1     2    1
     4     2     3    1
     5     3    22    1
     6    22    23    1
     7    23    24    1
     8    24    25   ar
     9    25    26    2
    10    25    27   ar
    11    27    28   ar
    12    28    29   ar
    13    29    30   ar
    14    30    31   ar
    15    31    32   ar
    16    32    35    1
    17    35    36    3
    18    32    33   ar
    19    33    34   ar
    20     3     4    1
    21     4     5    1
    22     5     6    1
    23     6     9    1
    24     9    11    1
    25    11    12    1
    26    12    13   ar
    27    13    14   ar
    28    14    15   ar
    29    15    16   ar
    30    16    17   ar
    31    15    18    1
    32    18    19    1
    33    19    20    1
    34    20    21    1
    35     6     1    1
    36    17    12   ar
    37    34    24   ar
    38    21    14    1
    39    34    29   ar
    40     9    10    1
@<TRIPOS>MOLECULE
*****
 36 40 0 0 0
SMALL
GASTEIGER

@<TRIPOS>ATOM
      1 C         143.5687  139.1116  162.4330 C.3     1  UNL1        0.1455
      2 C         142.2806  138.3898  162.6972 C.3     1  UNL1        0.1034
      3 N         141.7819  138.2358  164.1034 N.3     1  UNL1       -0.2689
      4 C         142.5713  138.8037  165.2456 C.3     1  UNL1        0.0737
      5 C         143.8593  139.5256  164.9814 C.3     1  UNL1        0.0356
      6 C         144.3580  139.6795  163.5750 C.3     1  UNL1        0.0846
      7 C         143.1170  139.6502  159.9318 C.3     1  UNL1        0.1741
      8 O         144.0674  139.2656  161.0268 O.3     1  UNL1       -0.3508
      9 N         145.6461  140.4014  163.3109 N.3     1  UNL1       -0.2915
     10 H         145.8871  140.2262  162.3353 H       1  UNL1        0.1236
     11 C         145.7309  141.8846  163.5183 C.3     1  UNL1        0.1153
     12 C         144.5394  142.7507  163.2350 C.ar    1  UNL1        0.0782
     13 C         144.0993  142.9813  161.8197 C.ar    1  UNL1        0.0562
     14 C         142.9078  143.8475  161.5365 C.ar    1  UNL1        0.1752
     15 C         142.1565  144.4830  162.6685 C.ar    1  UNL1        0.1914
     16 C         142.5966  144.2525  164.0839 C.ar    1  UNL1        0.1384
     17 N         143.7881  143.3863  164.3671 N.ar    1  UNL1       -0.2434
     18 O         140.9651  145.3492  162.3852 O.3     1  UNL1       -0.4668
     19 C         140.5249  145.5798  160.9700 C.3     1  UNL1        0.2527
     20 C         141.2763  144.9442  159.8378 C.3     1  UNL1        0.2526
     21 O         142.4677  144.0781  160.1211 O.3     1  UNL1       -0.4683
     22 C         140.4938  137.5140  164.3676 C.3     1  UNL1        0.0970
     23 C         139.2832  138.2791  164.8139 C.3     1  UNL1        0.1263
     24 N         138.8254  139.4781  164.0374 N.ar    1  UNL1       -0.2941
     25 C         138.1398  139.2985  162.7154 C.ar    1  UNL1        0.2610
     26 O         137.9120  137.9198  162.1699 O.2     1  UNL1       -0.2670
     27 C         137.6820  140.4974  161.9390 C.ar    1  UNL1        0.0608
     28 C         137.9098  141.8760  162.4845 C.ar    1  UNL1        0.0063
     29 C         138.5954  142.0557  163.8065 C.ar    1  UNL1        0.0161
     30 C         138.8232  143.4342  164.3520 C.ar    1  UNL1        0.0021
     31 C         139.5088  143.6138  165.6740 C.ar    1  UNL1        0.0104
     32 C         139.9666  142.4149  166.4505 C.ar    1  UNL1        0.0699
     33 C         139.7388  141.0363  165.9050 C.ar    1  UNL1        0.0275
     34 C         139.0532  140.8567  164.5830 C.ar    1  UNL1        0.0631
     35 C         140.6522  142.5945  167.7725 C.1     1  UNL1        0.1005
     36 N         141.3377  142.7742  169.0945 N.1     1  UNL1       -0.1908
@<TRIPOS>BOND
     1     7     8    1
     2     1     8    1
     3     1     2    1
     4     2     3    1
     5     3    22    1
     6    22    23    1
     7    23    24    1
     8    24    25   ar
     9    25    26    2
    10    25    27   ar
    11    27    28   ar
    12    28    29   ar
    13    29    30   ar
    14    30    31   ar
    15    31    32   ar
    16    32    35    1
    17    35    36    3
    18    32    33   ar
    19    33    34   ar
    20     3     4    1
    21     4     5    1
    22     5     6    1
    23     6     9    1
    24     9    11    1
    25    11    12    1
    26    12    13   ar
    27    13    14   ar
    28    14    15   ar
    29    15    16   ar
    30    16    17   ar
    31    15    18    1
    32    18    19    1
    33    19    20    1
    34    20    21    1
    35     6     1    1
    36    17    12   ar
    37    34    24   ar
    38    21    14    1
    39    34    29   ar
    40     9    10    1
@<TRIPOS>MOLECULE
*****
 36 40 0 0 0
SMALL
GASTEIGER

@<TRIPOS>ATOM
      1 C         138.1965  143.0318  163.6935 C.3     1  UNL1        0.1455
      2 C         138.0744  141.5478  163.8749 C.3     1  UNL1        0.1034
      3 N         138.1436  140.6384  162.6841 N.3     1  UNL1       -0.2689
      4 C         138.3348  141.2129  161.3117 C.3     1  UNL1        0.0737
      5 C         138.4569  142.6969  161.1302 C.3     1  UNL1        0.0356
      6 C         138.3877  143.6063  162.3212 C.3     1  UNL1        0.0846
      7 C         139.3155  144.0844  165.7886 C.3     1  UNL1        0.1741
      8 O         138.1273  143.9412  164.8843 O.3     1  UNL1       -0.3508
      9 N         138.5098  145.0903  162.1397 N.3     1  UNL1       -0.2915
     10 H         138.0269  145.5239  162.9266 H       1  UNL1        0.1236
     11 C         139.8656  145.7271  162.0595 C.3     1  UNL1        0.1153
     12 C         141.0941  144.8692  161.9894 C.ar    1  UNL1        0.0782
     13 C         141.8119  144.4828  163.2485 C.ar    1  UNL1        0.0562
     14 C         143.0404  143.6250  163.1784 C.ar    1  UNL1        0.1752
     15 C         143.5511  143.1536  161.8491 C.ar    1  UNL1        0.1914
     16 C         142.8333  143.5400  160.5899 C.ar    1  UNL1        0.1384
     17 N         141.6048  144.3978  160.6600 N.ar    1  UNL1       -0.2434
     18 O         144.7796  142.2957  161.7790 O.3     1  UNL1       -0.4668
     19 C         145.4974  141.9093  163.0382 C.3     1  UNL1        0.2527
     20 C         144.9866  142.3807  164.3675 C.3     1  UNL1        0.2526
     21 O         143.7581  143.2385  164.4376 O.3     1  UNL1       -0.4683
     22 C         138.0215  139.1544  162.8655 C.3     1  UNL1        0.0970
     23 C         138.6943  138.4829  164.0260 C.3     1  UNL1        0.1263
     24 N         140.1849  138.5587  164.1752 N.ar    1  UNL1       -0.2941
     25 C         141.0742  138.1508  163.0382 C.ar    1  UNL1        0.2610
     26 O         140.4728  137.6671  161.7519 O.2     1  UNL1       -0.2670
     27 C         142.5648  138.2267  163.1874 C.ar    1  UNL1        0.0608
     28 C         143.1662  138.7104  164.4735 C.ar    1  UNL1        0.0063
     29 C         142.2769  139.1183  165.6106 C.ar    1  UNL1        0.0161
     30 C         142.8783  139.6020  166.8968 C.ar    1  UNL1        0.0021
     31 C         141.9891  140.0099  168.0338 C.ar    1  UNL1        0.0104
     32 C         140.4984  139.9340  167.8846 C.ar    1  UNL1        0.0699
     33 C         139.8970  139.4503  166.5984 C.ar    1  UNL1        0.0275
     34 C         140.7863  139.0424  165.4614 C.ar    1  UNL1        0.0631
     35 C         139.6092  140.3420  169.0217 C.1     1  UNL1        0.1005
     36 N         138.7200  140.7499  170.1588 N.1     1  UNL1       -0.1908
@<TRIPOS>BOND
     1     7     8    1
     2     1     8    1
     3     1     2    1
     4     2     3    1
     5     3    22    1
     6    22    23    1
     7    23    24    1
     8    24    25   ar
     9    25    26    2
    10    25    27   ar
    11    27    28   ar
    12    28    29   ar
    13    29    30   ar
    14    30    31   ar
    15    31    32   ar
    16    32    35    1
    17    35    36    3
    18    32    33   ar
    19    33    34   ar
    20     3     4    1
    21     4     5    1
    22     5     6    1
    23     6     9    1
    24     9    11    1
    25    11    12    1
    26    12    13   ar
    27    13    14   ar
    28    14    15   ar
    29    15    16   ar
    30    16    17   ar
    31    15    18    1
    32    18    19    1
    33    19    20    1
    34    20    21    1
    35     6     1    1
    36    17    12   ar
    37    34    24   ar
    38    21    14    1
    39    34    29   ar
    40     9    10    1
@<TRIPOS>MOLECULE
*****
 36 40 0 0 0
SMALL
GASTEIGER

@<TRIPOS>ATOM
      1 C         140.1829  138.1791  162.9100 C.3     1  UNL1        0.1455
      2 C         141.4846  138.2537  163.6516 C.3     1  UNL1        0.1034
      3 N         142.7055  138.7977  162.9708 N.3     1  UNL1       -0.2689
      4 C         142.6247  139.2671  161.5484 C.3     1  UNL1        0.0737
      5 C         141.3230  139.1925  160.8068 C.3     1  UNL1        0.0356
      6 C         140.1020  138.6485  161.4876 C.3     1  UNL1        0.0846
      7 C         138.8264  137.7366  165.0812 C.3     1  UNL1        0.1741
      8 O         138.9620  137.6351  163.5908 O.3     1  UNL1       -0.3508
      9 N         138.8003  138.5738  160.7461 N.3     1  UNL1       -0.2915
     10 H         138.4543  137.6204  160.8538 H       1  UNL1        0.1236
     11 C         137.6715  139.4888  161.1184 C.3     1  UNL1        0.1153
     12 C         137.9496  140.9230  161.4588 C.ar    1  UNL1        0.0782
     13 C         138.8643  141.7359  160.5913 C.ar    1  UNL1        0.0562
     14 C         139.1425  143.1700  160.9316 C.ar    1  UNL1        0.1752
     15 C         138.5060  143.7913  162.1394 C.ar    1  UNL1        0.1914
     16 C         137.5913  142.9784  163.0070 C.ar    1  UNL1        0.1384
     17 N         137.3131  141.5442  162.6666 N.ar    1  UNL1       -0.2434
     18 O         138.7841  145.2254  162.4797 O.3     1  UNL1       -0.4668
     19 C         139.6988  146.0383  161.6122 C.3     1  UNL1        0.2527
     20 C         140.3354  145.4171  160.4044 C.3     1  UNL1        0.2526
     21 O         140.0572  143.9829  160.0640 O.3     1  UNL1       -0.4683
     22 C         144.0072  138.8724  163.7124 C.3     1  UNL1        0.0970
     23 C         144.3359  140.0861  164.5303 C.3     1  UNL1        0.1263
     24 N         143.7538  141.4187  164.1623 N.ar    1  UNL1       -0.2941
     25 C         144.4302  142.2739  163.1323 C.ar    1  UNL1        0.2610
     26 O         145.6888  141.7967  162.4703 O.2     1  UNL1       -0.2670
     27 C         143.8481  143.6065  162.7643 C.ar    1  UNL1        0.0608
     28 C         142.5896  144.0838  163.4262 C.ar    1  UNL1        0.0063
     29 C         141.9131  143.2285  164.4563 C.ar    1  UNL1        0.0161
     30 C         140.6545  143.7058  165.1182 C.ar    1  UNL1        0.0021
     31 C         139.9781  142.8505  166.1482 C.ar    1  UNL1        0.0104
     32 C         140.5602  141.5179  166.5162 C.ar    1  UNL1        0.0699
     33 C         141.8187  141.0407  165.8543 C.ar    1  UNL1        0.0275
     34 C         142.4952  141.8959  164.8243 C.ar    1  UNL1        0.0631
     35 C         139.8837  140.6627  167.5462 C.1     1  UNL1        0.1005
     36 N         139.2073  139.8074  168.5762 N.1     1  UNL1       -0.1908
@<TRIPOS>BOND
     1     7     8    1
     2     1     8    1
     3     1     2    1
     4     2     3    1
     5     3    22    1
     6    22    23    1
     7    23    24    1
     8    24    25   ar
     9    25    26    2
    10    25    27   ar
    11    27    28   ar
    12    28    29   ar
    13    29    30   ar
    14    30    31   ar
    15    31    32   ar
    16    32    35    1
    17    35    36    3
    18    32    33   ar
    19    33    34   ar
    20     3     4    1
    21     4     5    1
    22     5     6    1
    23     6     9    1
    24     9    11    1
    25    11    12    1
    26    12    13   ar
    27    13    14   ar
    28    14    15   ar
    29    15    16   ar
    30    16    17   ar
    31    15    18    1
    32    18    19    1
    33    19    20    1
    34    20    21    1
    35     6     1    1
    36    17    12   ar
    37    34    24   ar
    38    21    14    1
    39    34    29   ar
    40     9    10    1
@<TRIPOS>MOLECULE
*****
 36 40 0 0 0
SMALL
GASTEIGER

@<TRIPOS>ATOM
      1 C         138.0134  140.6442  162.2527 C.3     1  UNL1        0.1455
      2 C         138.3920  139.7856  163.4229 C.3     1  UNL1        0.1034
      3 N         139.2007  138.5405  163.2090 N.3     1  UNL1       -0.2689
      4 C         139.6307  138.1540  161.8248 C.3     1  UNL1        0.0737
      5 C         139.2520  139.0127  160.6546 C.3     1  UNL1        0.0356
      6 C         138.4433  140.2578  160.8686 C.3     1  UNL1        0.0846
      7 C         137.5357  142.8129  163.6014 C.3     1  UNL1        0.1741
      8 O         137.2047  141.8893  162.4666 O.3     1  UNL1       -0.3508
      9 N         138.0646  141.1165  159.6984 N.3     1  UNL1       -0.2915
     10 H         137.2158  141.6166  159.9627 H       1  UNL1        0.1236
     11 C         139.0275  142.1424  159.1782 C.3     1  UNL1        0.1153
     12 C         139.8583  142.9447  160.1354 C.ar    1  UNL1        0.0782
     13 C         141.2931  142.5776  160.3730 C.ar    1  UNL1        0.0562
     14 C         142.1238  143.3799  161.3302 C.ar    1  UNL1        0.1752
     15 C         141.5198  144.5493  162.0497 C.ar    1  UNL1        0.1914
     16 C         140.0849  144.9163  161.8121 C.ar    1  UNL1        0.1384
     17 N         139.2541  144.1140  160.8549 N.ar    1  UNL1       -0.2434
     18 O         142.3505  145.3516  163.0069 O.3     1  UNL1       -0.4668
     19 C         143.7853  144.9845  163.2445 C.3     1  UNL1        0.2527
     20 C         144.3895  143.8152  162.5250 C.3     1  UNL1        0.2526
     21 O         143.5587  143.0129  161.5678 O.3     1  UNL1       -0.4683
     22 C         139.5794  137.6818  164.3791 C.3     1  UNL1        0.0970
     23 C         141.0135  137.5907  164.8095 C.3     1  UNL1        0.1263
     24 N         141.8585  138.8285  164.8701 N.ar    1  UNL1       -0.2941
     25 C         142.8955  139.0810  163.8162 C.ar    1  UNL1        0.2610
     26 O         143.0876  138.0956  162.7016 O.2     1  UNL1       -0.2670
     27 C         143.7405  140.3189  163.8767 C.ar    1  UNL1        0.0608
     28 C         143.5485  141.3042  164.9912 C.ar    1  UNL1        0.0063
     29 C         142.5114  141.0518  166.0452 C.ar    1  UNL1        0.0161
     30 C         142.3194  142.0371  167.1597 C.ar    1  UNL1        0.0021
     31 C         141.2824  141.7846  168.2136 C.ar    1  UNL1        0.0104
     32 C         140.4374  140.5468  168.1530 C.ar    1  UNL1        0.0699
     33 C         140.6294  139.5614  167.0386 C.ar    1  UNL1        0.0275
     34 C         141.6664  139.8139  165.9847 C.ar    1  UNL1        0.0631
     35 C         139.4003  140.2943  169.2070 C.1     1  UNL1        0.1005
     36 N         138.3633  140.0418  170.2610 N.1     1  UNL1       -0.1908
@<TRIPOS>BOND
     1     7     8    1
     2     1     8    1
     3     1     2    1
     4     2     3    1
     5     3    22    1
     6    22    23    1
     7    23    24    1
     8    24    25   ar
     9    25    26    2
    10    25    27   ar
    11    27    28   ar
    12    28    29   ar
    13    29    30   ar
    14    30    31   ar
    15    31    32   ar
    16    32    35    1
    17    35    36    3
    18    32    33   ar
    19    33    34   ar
    20     3     4    1
    21     4     5    1
    22     5     6    1
    23     6     9    1
    24     9    11    1
    25    11    12    1
    26    12    13   ar
    27    13    14   ar
    28    14    15   ar
    29    15    16   ar
    30    16    17   ar
    31    15    18    1
    32    18    19    1
    33    19    20    1
    34    20    21    1
    35     6     1    1
    36    17    12   ar
    37    34    24   ar
    38    21    14    1
    39    34    29   ar
    40     9    10    1
@<TRIPOS>MOLECULE
*****
 36 40 0 0 0
SMALL
GASTEIGER

@<TRIPOS>ATOM
      1 C         142.7904  144.0083  164.0341 C.3     1  UNL1        0.1455
      2 C         143.0876  142.8336  164.9182 C.3     1  UNL1        0.1034
      3 N         142.0238  142.2887  165.8244 N.3     1  UNL1       -0.2689
      4 C         140.6626  142.9186  165.8466 C.3     1  UNL1        0.0737
      5 C         140.3653  144.0933  164.9625 C.3     1  UNL1        0.0356
      6 C         141.4293  144.6382  164.0563 C.3     1  UNL1        0.0846
      7 C         144.5324  143.6509  162.1400 C.3     1  UNL1        0.1741
      8 O         143.8543  144.5532  163.1280 O.3     1  UNL1       -0.3508
      9 N         141.1320  145.8130  163.1723 N.3     1  UNL1       -0.2915
     10 H         142.0302  146.2209  162.9126 H       1  UNL1        0.1236
     11 C         140.3609  145.6184  161.9004 C.3     1  UNL1        0.1153
     12 C         140.2297  144.2479  161.3051 C.ar    1  UNL1        0.0782
     13 C         139.0007  143.4297  161.5698 C.ar    1  UNL1        0.0562
     14 C         138.8695  142.0592  160.9746 C.ar    1  UNL1        0.1752
     15 C         139.9673  141.5067  160.1146 C.ar    1  UNL1        0.1914
     16 C         141.1964  142.3249  159.8498 C.ar    1  UNL1        0.1384
     17 N         141.3276  143.6954  160.4451 N.ar    1  UNL1       -0.2434
     18 O         139.8360  140.1362  159.5193 O.3     1  UNL1       -0.4668
     19 C         138.6070  139.3180  159.7840 C.3     1  UNL1        0.2527
     20 C         137.5092  139.8704  160.6441 C.3     1  UNL1        0.2526
     21 O         137.6404  141.2410  161.2394 O.3     1  UNL1       -0.4683
     22 C         142.3210  141.1139  166.7084 C.3     1  UNL1        0.0970
     23 C         143.1248  139.9625  166.1807 C.3     1  UNL1        0.1263
     24 N         142.8487  139.4212  164.8093 N.ar    1  UNL1       -0.2941
     25 C         143.9029  139.5008  163.7453 C.ar    1  UNL1        0.2610
     26 O         145.2333  140.1218  164.0526 O.2     1  UNL1       -0.2670
     27 C         143.6267  138.9595  162.3739 C.ar    1  UNL1        0.0608
     28 C         142.2963  138.3385  162.0666 C.ar    1  UNL1        0.0063
     29 C         141.2421  138.2588  163.1307 C.ar    1  UNL1        0.0161
     30 C         139.9117  137.6378  162.8233 C.ar    1  UNL1        0.0021
     31 C         138.8575  137.5582  163.8874 C.ar    1  UNL1        0.0104
     32 C         139.1337  138.0996  165.2588 C.ar    1  UNL1        0.0699
     33 C         140.4640  138.7205  165.5661 C.ar    1  UNL1        0.0275
     34 C         141.5182  138.8002  164.5020 C.ar    1  UNL1        0.0631
     35 C         138.0794  138.0199  166.3229 C.1     1  UNL1        0.1005
     36 N         137.0252  137.9402  167.3869 N.1     1  UNL1       -0.1908
@<TRIPOS>BOND
     1     7     8    1
     2     1     8    1
     3     1     2    1
     4     2     3    1
     5     3    22    1
     6    22    23    1
     7    23    24    1
     8    24    25   ar
     9    25    26    2
    10    25    27   ar
    11    27    28   ar
    12    28    29   ar
    13    29    30   ar
    14    30    31   ar
    15    31    32   ar
    16    32    35    1
    17    35    36    3
    18    32    33   ar
    19    33    34   ar
    20     3     4    1
    21     4     5    1
    22     5     6    1
    23     6     9    1
    24     9    11    1
    25    11    12    1
    26    12    13   ar
    27    13    14   ar
    28    14    15   ar
    29    15    16   ar
    30    16    17   ar
    31    15    18    1
    32    18    19    1
    33    19    20    1
    34    20    21    1
    35     6     1    1
    36    17    12   ar
    37    34    24   ar
    38    21    14    1
    39    34    29   ar
    40     9    10    1
