@<TRIPOS>MOLECULE
*****
 21 22 0 0 0
SMALL
GASTEIGER

@<TRIPOS>ATOM
      1 C         141.7065  139.1055  166.3649 C.ar    1  UNL1        0.0282
      2 C         142.8214  139.1650  167.3665 C.ar    1  UNL1        0.0008
      3 C         142.5560  139.6658  168.7553 C.ar    1  UNL1        0.0102
      4 C         141.1758  140.1072  169.1425 C.ar    1  UNL1        0.0715
      5 C         140.0608  140.0477  168.1408 C.ar    1  UNL1        0.0475
      6 C         140.3262  139.5469  166.7520 C.ar    1  UNL1        0.1432
      7 C         140.9104  140.6080  170.5313 C.1     1  UNL1        0.1005
      8 N         140.6451  141.1088  171.9201 N.1     1  UNL1       -0.1908
      9 C         141.9718  138.6047  164.9761 C.3     1  UNL1        0.0987
     10 C         140.5809  137.4716  163.0969 C.3     1  UNL1        0.0861
     11 N         141.2225  137.4159  164.4516 N.3     1  UNL1       -0.2925
     12 H         141.8811  136.6372  164.4336 H       1  UNL1        0.1236
     13 O         139.2111  139.4875  165.7504 O.3     1  UNL1       -0.4537
     14 C         138.7965  140.7274  165.0152 C.ar    1  UNL1        0.1462
     15 C         137.8794  140.6268  163.8324 C.ar    1  UNL1        0.0384
     16 C         137.4648  141.8668  163.0973 C.ar    1  UNL1        0.0154
     17 C         137.9672  143.2074  163.5448 C.ar    1  UNL1        0.0684
     18 CL        137.5525  144.4474  162.8097 Cl      1  UNL1       -0.0814
     19 C         138.8842  143.3081  164.7275 C.ar    1  UNL1        0.0712
     20 CL        139.3866  144.6487  165.1751 Cl      1  UNL1       -0.0813
     21 C         139.2989  142.0681  165.4628 C.ar    1  UNL1        0.0497
@<TRIPOS>BOND
     1    10    11    1
     2    11     9    1
     3     9     1    1
     4     1     2   ar
     5     2     3   ar
     6     3     4   ar
     7     4     7    1
     8     7     8    3
     9     4     5   ar
    10     5     6   ar
    11     6    13    1
    12    13    14    1
    13    14    15   ar
    14    15    16   ar
    15    16    17   ar
    16    17    18    1
    17    17    19   ar
    18    19    20    1
    19    19    21   ar
    20     6     1   ar
    21    21    14   ar
    22    11    12    1
@<TRIPOS>MOLECULE
*****
 21 22 0 0 0
SMALL
GASTEIGER

@<TRIPOS>ATOM
      1 C         139.1468  140.3592  166.5112 C.ar    1  UNL1        0.0282
      2 C         138.6877  139.5880  167.7130 C.ar    1  UNL1        0.0008
      3 C         139.0982  140.0267  169.0874 C.ar    1  UNL1        0.0102
      4 C         139.9680  141.2365  169.2600 C.ar    1  UNL1        0.0715
      5 C         140.4272  142.0077  168.0582 C.ar    1  UNL1        0.0475
      6 C         140.0166  141.5690  166.6838 C.ar    1  UNL1        0.1432
      7 C         140.3785  141.6751  170.6344 C.1     1  UNL1        0.1005
      8 N         140.7891  142.1138  172.0089 N.1     1  UNL1       -0.1908
      9 C         138.7363  139.9206  165.1368 C.3     1  UNL1        0.0987
     10 C         137.7612  140.6619  162.8455 C.3     1  UNL1        0.0861
     11 N         137.7692  140.7480  164.3431 N.3     1  UNL1       -0.2925
     12 H         136.8338  140.4903  164.6578 H       1  UNL1        0.1236
     13 O         140.4758  142.3403  165.4819 O.3     1  UNL1       -0.4537
     14 C         141.8838  142.1896  164.9872 C.ar    1  UNL1        0.1462
     15 C         142.6143  143.3758  164.4309 C.ar    1  UNL1        0.0384
     16 C         144.0223  143.2251  163.9361 C.ar    1  UNL1        0.0154
     17 C         144.6998  141.8883  163.9976 C.ar    1  UNL1        0.0684
     18 CL        146.1078  141.7376  163.5028 Cl      1  UNL1       -0.0814
     19 C         143.9694  140.7021  164.5537 C.ar    1  UNL1        0.0712
     20 CL        144.6469  139.3652  164.6151 Cl      1  UNL1       -0.0813
     21 C         142.5613  140.8527  165.0486 C.ar    1  UNL1        0.0497
@<TRIPOS>BOND
     1    10    11    1
     2    11     9    1
     3     9     1    1
     4     1     2   ar
     5     2     3   ar
     6     3     4   ar
     7     4     7    1
     8     7     8    3
     9     4     5   ar
    10     5     6   ar
    11     6    13    1
    12    13    14    1
    13    14    15   ar
    14    15    16   ar
    15    16    17   ar
    16    17    18    1
    17    17    19   ar
    18    19    20    1
    19    19    21   ar
    20     6     1   ar
    21    21    14   ar
    22    11    12    1
@<TRIPOS>MOLECULE
*****
 21 22 0 0 0
SMALL
GASTEIGER

@<TRIPOS>ATOM
      1 C         140.9203  140.1086  166.4364 C.ar    1  UNL1        0.0282
      2 C         142.0925  139.6596  167.2574 C.ar    1  UNL1        0.0008
      3 C         142.6205  140.5368  168.3537 C.ar    1  UNL1        0.0102
      4 C         141.9761  141.8631  168.6289 C.ar    1  UNL1        0.0715
      5 C         140.8038  142.3121  167.8078 C.ar    1  UNL1        0.0475
      6 C         140.2759  141.4348  166.7116 C.ar    1  UNL1        0.1432
      7 C         142.5040  142.7403  169.7251 C.1     1  UNL1        0.1005
      8 N         143.0319  143.6176  170.8213 N.1     1  UNL1       -0.1908
      9 C         140.3924  139.2313  165.3402 C.3     1  UNL1        0.0987
     10 C         138.1356  138.4287  166.3465 C.3     1  UNL1        0.0861
     11 N         138.9154  139.0083  165.2037 N.3     1  UNL1       -0.2925
     12 H         138.4989  139.9153  164.9930 H       1  UNL1        0.1236
     13 O         139.1036  141.8839  165.8906 O.3     1  UNL1       -0.4537
     14 C         139.2674  142.9911  164.8919 C.ar    1  UNL1        0.1462
     15 C         138.0984  143.4310  164.0613 C.ar    1  UNL1        0.0384
     16 C         138.2622  144.5382  163.0627 C.ar    1  UNL1        0.0154
     17 C         139.5951  145.2054  162.8946 C.ar    1  UNL1        0.0684
     18 CL        139.7590  146.3126  161.8960 Cl      1  UNL1       -0.0814
     19 C         140.7641  144.7655  163.7251 C.ar    1  UNL1        0.0712
     20 CL        142.0970  145.4328  163.5570 Cl      1  UNL1       -0.0813
     21 C         140.6003  143.6583  164.7238 C.ar    1  UNL1        0.0497
@<TRIPOS>BOND
     1    10    11    1
     2    11     9    1
     3     9     1    1
     4     1     2   ar
     5     2     3   ar
     6     3     4   ar
     7     4     7    1
     8     7     8    3
     9     4     5   ar
    10     5     6   ar
    11     6    13    1
    12    13    14    1
    13    14    15   ar
    14    15    16   ar
    15    16    17   ar
    16    17    18    1
    17    17    19   ar
    18    19    20    1
    19    19    21   ar
    20     6     1   ar
    21    21    14   ar
    22    11    12    1
@<TRIPOS>MOLECULE
*****
 21 22 0 0 0
SMALL
GASTEIGER

@<TRIPOS>ATOM
      1 C         139.1273  140.3108  166.4757 C.ar    1  UNL1        0.0282
      2 C         138.7009  139.5276  167.6817 C.ar    1  UNL1        0.0008
      3 C         139.1111  139.9784  169.0523 C.ar    1  UNL1        0.0102
      4 C         139.9478  141.2125  169.2168 C.ar    1  UNL1        0.0715
      5 C         140.3742  141.9957  168.0107 C.ar    1  UNL1        0.0475
      6 C         139.9639  141.5449  166.6402 C.ar    1  UNL1        0.1432
      7 C         140.3580  141.6633  170.5874 C.1     1  UNL1        0.1005
      8 N         140.7682  142.1141  171.9580 N.1     1  UNL1       -0.1908
      9 C         138.7170  139.8600  165.1051 C.3     1  UNL1        0.0987
     10 C         138.0408  141.3438  163.0825 C.3     1  UNL1        0.0861
     11 N         137.6728  140.6235  164.3457 N.3     1  UNL1       -0.2925
     12 H         136.9400  139.9572  164.1020 H       1  UNL1        0.1236
     13 O         140.3904  142.3282  165.4340 O.3     1  UNL1       -0.4537
     14 C         141.7880  142.1919  164.9069 C.ar    1  UNL1        0.1462
     15 C         142.6114  140.9907  165.2665 C.ar    1  UNL1        0.0384
     16 C         144.0091  140.8544  164.7394 C.ar    1  UNL1        0.0154
     17 C         144.5835  141.9193  163.8527 C.ar    1  UNL1        0.0684
     18 CL        145.9811  141.7830  163.3256 Cl      1  UNL1       -0.0814
     19 C         143.7601  143.1204  163.4931 C.ar    1  UNL1        0.0712
     20 CL        144.3345  144.1853  162.6065 Cl      1  UNL1       -0.0813
     21 C         142.3624  143.2568  164.0203 C.ar    1  UNL1        0.0497
@<TRIPOS>BOND
     1    10    11    1
     2    11     9    1
     3     9     1    1
     4     1     2   ar
     5     2     3   ar
     6     3     4   ar
     7     4     7    1
     8     7     8    3
     9     4     5   ar
    10     5     6   ar
    11     6    13    1
    12    13    14    1
    13    14    15   ar
    14    15    16   ar
    15    16    17   ar
    16    17    18    1
    17    17    19   ar
    18    19    20    1
    19    19    21   ar
    20     6     1   ar
    21    21    14   ar
    22    11    12    1
@<TRIPOS>MOLECULE
*****
 21 22 0 0 0
SMALL
GASTEIGER

@<TRIPOS>ATOM
      1 C         140.6415  144.2972  164.2178 C.ar    1  UNL1        0.0282
      2 C         141.6799  145.1107  163.5038 C.ar    1  UNL1        0.0008
      3 C         143.0048  144.4985  163.1576 C.ar    1  UNL1        0.0102
      4 C         143.2913  143.0729  163.5254 C.ar    1  UNL1        0.0715
      5 C         142.2529  142.2594  164.2394 C.ar    1  UNL1        0.0475
      6 C         140.9280  142.8715  164.5856 C.ar    1  UNL1        0.1432
      7 C         144.6162  142.4607  163.1792 C.1     1  UNL1        0.1005
      8 N         145.9411  141.8485  162.8330 N.1     1  UNL1       -0.1908
      9 C         139.3166  144.9094  164.5639 C.3     1  UNL1        0.0987
     10 C         137.7812  143.7107  162.8448 C.3     1  UNL1        0.0861
     11 N         138.0463  144.1782  164.2452 N.3     1  UNL1       -0.2925
     12 H         138.0257  143.3504  164.8408 H       1  UNL1        0.1236
     13 O         139.8895  142.0580  165.2996 O.3     1  UNL1       -0.4537
     14 C         140.0590  141.7359  166.7548 C.ar    1  UNL1        0.1462
     15 C         139.6895  140.3765  167.2701 C.ar    1  UNL1        0.0384
     16 C         139.8590  140.0545  168.7252 C.ar    1  UNL1        0.0154
     17 C         140.3980  141.0918  169.6652 C.ar    1  UNL1        0.0684
     18 CL        140.5675  140.7698  171.1203 Cl      1  UNL1       -0.0814
     19 C         140.7674  142.4512  169.1499 C.ar    1  UNL1        0.0712
     20 CL        141.3064  143.4886  170.0898 Cl      1  UNL1       -0.0813
     21 C         140.5980  142.7733  167.6947 C.ar    1  UNL1        0.0497
@<TRIPOS>BOND
     1    10    11    1
     2    11     9    1
     3     9     1    1
     4     1     2   ar
     5     2     3   ar
     6     3     4   ar
     7     4     7    1
     8     7     8    3
     9     4     5   ar
    10     5     6   ar
    11     6    13    1
    12    13    14    1
    13    14    15   ar
    14    15    16   ar
    15    16    17   ar
    16    17    18    1
    17    17    19   ar
    18    19    20    1
    19    19    21   ar
    20     6     1   ar
    21    21    14   ar
    22    11    12    1
@<TRIPOS>MOLECULE
*****
 21 22 0 0 0
SMALL
GASTEIGER

@<TRIPOS>ATOM
      1 C         141.9490  140.6209  166.4687 C.ar    1  UNL1        0.0282
      2 C         142.5805  141.8125  167.1253 C.ar    1  UNL1        0.0008
      3 C         141.9173  142.4574  168.3062 C.ar    1  UNL1        0.0102
      4 C         140.6226  141.9107  168.8303 C.ar    1  UNL1        0.0715
      5 C         139.9911  140.7191  168.1737 C.ar    1  UNL1        0.0475
      6 C         140.6542  140.0742  166.9928 C.ar    1  UNL1        0.1432
      7 C         139.9594  142.5555  170.0111 C.1     1  UNL1        0.1005
      8 N         139.2962  143.2004  171.1919 N.1     1  UNL1       -0.1908
      9 C         142.6121  139.9760  165.2879 C.3     1  UNL1        0.0987
     10 C         143.7762  138.0361  166.5652 C.3     1  UNL1        0.0861
     11 N         143.0398  138.5401  165.3595 N.3     1  UNL1       -0.2925
     12 H         142.1940  137.9764  165.2741 H       1  UNL1        0.1236
     13 O         140.0226  138.8825  166.3362 O.3     1  UNL1       -0.4537
     14 C         139.3460  139.0303  165.0057 C.ar    1  UNL1        0.1462
     15 C         139.3709  137.8983  164.0218 C.ar    1  UNL1        0.0384
     16 C         138.6942  138.0460  162.6913 C.ar    1  UNL1        0.0154
     17 C         137.9926  139.3257  162.3446 C.ar    1  UNL1        0.0684
     18 CL        137.3160  139.4734  161.0141 Cl      1  UNL1       -0.0814
     19 C         137.9677  140.4576  163.3285 C.ar    1  UNL1        0.0712
     20 CL        137.2661  141.7373  162.9818 Cl      1  UNL1       -0.0813
     21 C         138.6444  140.3099  164.6590 C.ar    1  UNL1        0.0497
@<TRIPOS>BOND
     1    10    11    1
     2    11     9    1
     3     9     1    1
     4     1     2   ar
     5     2     3   ar
     6     3     4   ar
     7     4     7    1
     8     7     8    3
     9     4     5   ar
    10     5     6   ar
    11     6    13    1
    12    13    14    1
    13    14    15   ar
    14    15    16   ar
    15    16    17   ar
    16    17    18    1
    17    17    19   ar
    18    19    20    1
    19    19    21   ar
    20     6     1   ar
    21    21    14   ar
    22    11    12    1
@<TRIPOS>MOLECULE
*****
 21 22 0 0 0
SMALL
GASTEIGER

@<TRIPOS>ATOM
      1 C         141.1297  139.4577  164.1873 C.ar    1  UNL1        0.0282
      2 C         140.4643  138.1271  163.9963 C.ar    1  UNL1        0.0008
      3 C         139.3371  137.7160  164.8966 C.ar    1  UNL1        0.0102
      4 C         138.8754  138.6356  165.9880 C.ar    1  UNL1        0.0715
      5 C         139.5407  139.9663  166.1790 C.ar    1  UNL1        0.0475
      6 C         140.6679  140.3773  165.2787 C.ar    1  UNL1        0.1432
      7 C         137.7482  138.2246  166.8883 C.1     1  UNL1        0.1005
      8 N         136.6211  137.8135  167.7886 N.1     1  UNL1       -0.1908
      9 C         142.2568  139.8688  163.2870 C.3     1  UNL1        0.0987
     10 C         144.6165  139.4512  164.2908 C.3     1  UNL1        0.0861
     11 N         143.5309  140.3991  163.8747 N.3     1  UNL1       -0.2925
     12 H         143.9373  141.0255  163.1798 H       1  UNL1        0.1236
     13 O         141.3333  141.7081  165.4697 O.3     1  UNL1       -0.4537
     14 C         140.9495  142.8700  164.6021 C.ar    1  UNL1        0.1462
     15 C         141.9982  143.8347  164.1335 C.ar    1  UNL1        0.0384
     16 C         141.6145  144.9966  163.2659 C.ar    1  UNL1        0.0154
     17 C         140.1820  145.1937  162.8669 C.ar    1  UNL1        0.0684
     18 CL        139.7983  146.3556  161.9993 Cl      1  UNL1       -0.0814
     19 C         139.1333  144.2290  163.3354 C.ar    1  UNL1        0.0712
     20 CL        137.7009  144.4262  162.9364 Cl      1  UNL1       -0.0813
     21 C         139.5171  143.0671  164.2031 C.ar    1  UNL1        0.0497
@<TRIPOS>BOND
     1    10    11    1
     2    11     9    1
     3     9     1    1
     4     1     2   ar
     5     2     3   ar
     6     3     4   ar
     7     4     7    1
     8     7     8    3
     9     4     5   ar
    10     5     6   ar
    11     6    13    1
    12    13    14    1
    13    14    15   ar
    14    15    16   ar
    15    16    17   ar
    16    17    18    1
    17    17    19   ar
    18    19    20    1
    19    19    21   ar
    20     6     1   ar
    21    21    14   ar
    22    11    12    1
@<TRIPOS>MOLECULE
*****
 21 22 0 0 0
SMALL
GASTEIGER

@<TRIPOS>ATOM
      1 C         140.6639  142.0323  169.1351 C.ar    1  UNL1        0.0282
      2 C         139.7234  141.3621  170.0923 C.ar    1  UNL1        0.0008
      3 C         138.8150  140.2700  169.6104 C.ar    1  UNL1        0.0102
      4 C         138.8472  139.8481  168.1714 C.ar    1  UNL1        0.0715
      5 C         139.7877  140.5183  167.2142 C.ar    1  UNL1        0.0475
      6 C         140.6960  141.6104  167.6961 C.ar    1  UNL1        0.1432
      7 C         137.9388  138.7559  167.6895 C.1     1  UNL1        0.1005
      8 N         137.0305  137.6638  167.2076 N.1     1  UNL1       -0.1908
      9 C         141.5722  143.1244  169.6170 C.3     1  UNL1        0.0987
     10 C         143.6772  141.6525  170.0071 C.3     1  UNL1        0.0861
     11 N         143.0600  142.9435  169.5572 N.3     1  UNL1       -0.2925
     12 H         143.3340  143.0774  168.5839 H       1  UNL1        0.1236
     13 O         141.6365  142.2807  166.7388 O.3     1  UNL1       -0.4537
     14 C         141.0962  143.1388  165.6335 C.ar    1  UNL1        0.1462
     15 C         139.7189  143.7231  165.7425 C.ar    1  UNL1        0.0384
     16 C         139.1786  144.5812  164.6373 C.ar    1  UNL1        0.0154
     17 C         140.0156  144.8551  163.4230 C.ar    1  UNL1        0.0684
     18 CL        139.4753  145.7132  162.3177 Cl      1  UNL1       -0.0814
     19 C         141.3928  144.2709  163.3139 C.ar    1  UNL1        0.0712
     20 CL        142.2297  144.5448  162.0996 Cl      1  UNL1       -0.0813
     21 C         141.9331  143.4127  164.4192 C.ar    1  UNL1        0.0497
@<TRIPOS>BOND
     1    10    11    1
     2    11     9    1
     3     9     1    1
     4     1     2   ar
     5     2     3   ar
     6     3     4   ar
     7     4     7    1
     8     7     8    3
     9     4     5   ar
    10     5     6   ar
    11     6    13    1
    12    13    14    1
    13    14    15   ar
    14    15    16   ar
    15    16    17   ar
    16    17    18    1
    17    17    19   ar
    18    19    20    1
    19    19    21   ar
    20     6     1   ar
    21    21    14   ar
    22    11    12    1
@<TRIPOS>MOLECULE
*****
 21 22 0 0 0
SMALL
GASTEIGER

@<TRIPOS>ATOM
      1 C         138.4096  138.6321  162.9134 C.ar    1  UNL1        0.0282
      2 C         139.0244  137.5972  163.8084 C.ar    1  UNL1        0.0008
      3 C         139.1981  137.8786  165.2715 C.ar    1  UNL1        0.0102
      4 C         138.7571  139.1949  165.8396 C.ar    1  UNL1        0.0715
      5 C         138.1423  140.2298  164.9446 C.ar    1  UNL1        0.0475
      6 C         137.9686  139.9484  163.4815 C.ar    1  UNL1        0.1432
      7 C         138.9308  139.4763  167.3027 C.1     1  UNL1        0.1005
      8 N         139.1045  139.7578  168.7657 N.1     1  UNL1       -0.1908
      9 C         138.2359  138.3507  161.4503 C.3     1  UNL1        0.0987
     10 C         140.6025  139.2024  160.7992 C.3     1  UNL1        0.0861
     11 N         139.4342  138.2953  160.5498 N.3     1  UNL1       -0.2925
     12 H         139.7892  137.3400  160.5905 H       1  UNL1        0.1236
     13 O         137.3538  140.9834  162.5865 O.3     1  UNL1       -0.4537
     14 C         138.0183  142.3172  162.4154 C.ar    1  UNL1        0.1462
     15 C         137.7183  143.4329  163.3722 C.ar    1  UNL1        0.0384
     16 C         138.3828  144.7667  163.2011 C.ar    1  UNL1        0.0154
     17 C         139.3474  144.9849  162.0733 C.ar    1  UNL1        0.0684
     18 CL        140.0119  146.3187  161.9022 Cl      1  UNL1       -0.0814
     19 C         139.6474  143.8693  161.1166 C.ar    1  UNL1        0.0712
     20 CL        140.6120  144.0876  159.9888 Cl      1  UNL1       -0.0813
     21 C         138.9829  142.5354  161.2876 C.ar    1  UNL1        0.0497
@<TRIPOS>BOND
     1    10    11    1
     2    11     9    1
     3     9     1    1
     4     1     2   ar
     5     2     3   ar
     6     3     4   ar
     7     4     7    1
     8     7     8    3
     9     4     5   ar
    10     5     6   ar
    11     6    13    1
    12    13    14    1
    13    14    15   ar
    14    15    16   ar
    15    16    17   ar
    16    17    18    1
    17    17    19   ar
    18    19    20    1
    19    19    21   ar
    20     6     1   ar
    21    21    14   ar
    22    11    12    1
