@<TRIPOS>MOLECULE
*****
 26 27 0 0 0
SMALL
GASTEIGER

@<TRIPOS>ATOM
      1 N         139.5614  139.7242  169.3550 N.3     1  UNL1       -0.2953
      2 H         139.5147  138.7134  169.4830 H       1  UNL1        0.1233
      3 C         140.9192  140.1577  169.8225 C.3     1  UNL1        0.0983
      4 C         141.0462  141.2031  170.8906 C.3     1  UNL1        0.0210
      5 C         142.1499  139.5458  169.2218 C.3     1  UNL1        0.2209
      6 O         142.9437  140.3059  168.2009 O.3     1  UNL1       -0.4747
      7 C         142.6212  140.1646  166.7429 C.ar    1  UNL1        0.1306
      8 C         141.8365  141.2333  166.0413 C.ar    1  UNL1        0.0118
      9 C         141.3743  142.4433  166.7978 C.3     1  UNL1        0.0342
     10 C         141.5139  141.0920  164.5833 C.ar    1  UNL1       -0.0013
     11 C         141.9761  139.8820  163.8267 C.ar    1  UNL1       -0.0004
     12 C         142.7608  138.8133  164.5283 C.ar    1  UNL1       -0.0013
     13 C         143.0833  138.9546  165.9864 C.ar    1  UNL1        0.0118
     14 C         143.8680  137.8860  166.6879 C.3     1  UNL1        0.0342
     15 C         139.1291  140.0027  167.9458 C.3     1  UNL1        0.0734
     16 C         138.3657  138.9656  167.1767 C.3     1  UNL1        0.0435
     17 C         138.5884  138.8800  162.6830 C.ar    1  UNL1        0.1724
     18 C         139.0301  137.6877  163.4787 C.ar    1  UNL1        0.0397
     19 C         138.9559  137.7162  164.9766 C.ar    1  UNL1       -0.0009
     20 C         138.4399  138.9371  165.6788 C.ar    1  UNL1       -0.0176
     21 C         137.9982  140.1294  164.8832 C.ar    1  UNL1        0.0358
     22 C         138.0725  140.1009  163.3853 C.ar    1  UNL1        0.1721
     23 C         139.8876  139.3606  160.4851 C.3     1  UNL1        0.2526
     24 O         138.6626  138.8515  161.1851 O.3     1  UNL1       -0.4684
     25 O         137.6308  141.2934  162.5896 O.3     1  UNL1       -0.4684
     26 C         137.6593  142.6598  163.2077 C.3     1  UNL1        0.2526
@<TRIPOS>BOND
     1    23    24    1
     2    24    17    1
     3    17    18   ar
     4    18    19   ar
     5    19    20   ar
     6    20    16    1
     7    16    15    1
     8    15     1    1
     9     1     3    1
    10     3     4    1
    11     3     5    1
    12     5     6    1
    13     6     7    1
    14     7     8   ar
    15     8     9    1
    16     8    10   ar
    17    10    11   ar
    18    11    12   ar
    19    12    13   ar
    20    13    14    1
    21    20    21   ar
    22    21    22   ar
    23    22    25    1
    24    25    26    1
    25    22    17   ar
    26    13     7   ar
    27     1     2    1
@<TRIPOS>MOLECULE
*****
 26 27 0 0 0
SMALL
GASTEIGER

@<TRIPOS>ATOM
      1 N         140.2573  140.8469  161.6630 N.3     1  UNL1       -0.2953
      2 H         140.8726  140.8804  160.8502 H       1  UNL1        0.1233
      3 C         139.7015  139.4552  161.7284 C.3     1  UNL1        0.0983
      4 C         138.4041  139.1982  162.4360 C.3     1  UNL1        0.0210
      5 C         140.4432  138.3205  161.0863 C.3     1  UNL1        0.2209
      6 O         141.3085  137.4227  161.9202 O.3     1  UNL1       -0.4747
      7 C         142.1637  138.0033  163.0071 C.ar    1  UNL1        0.1306
      8 C         143.4797  138.6380  162.6677 C.ar    1  UNL1        0.0118
      9 C         143.9406  138.6921  161.2413 C.3     1  UNL1        0.0342
     10 C         144.3349  139.2187  163.7546 C.ar    1  UNL1       -0.0013
     11 C         143.8740  139.1647  165.1811 C.ar    1  UNL1       -0.0004
     12 C         142.5580  138.5300  165.5206 C.ar    1  UNL1       -0.0013
     13 C         141.7028  137.9493  164.4335 C.ar    1  UNL1        0.0118
     14 C         140.3868  137.3146  164.7730 C.3     1  UNL1        0.0342
     15 C         141.0373  141.3981  162.8196 C.3     1  UNL1        0.0734
     16 C         140.3254  142.0993  163.9383 C.3     1  UNL1        0.0435
     17 C         140.8380  140.6730  168.1754 C.ar    1  UNL1        0.1724
     18 C         141.8408  141.6123  167.5738 C.ar    1  UNL1        0.0397
     19 C         141.6699  142.0878  166.1614 C.ar    1  UNL1       -0.0009
     20 C         140.4963  141.6239  165.3507 C.ar    1  UNL1       -0.0176
     21 C         139.4935  140.6845  165.9523 C.ar    1  UNL1        0.0358
     22 C         139.6643  140.2091  167.3647 C.ar    1  UNL1        0.1721
     23 C         142.0958  139.2201  169.9238 C.3     1  UNL1        0.2526
     24 O         141.0088  140.1976  169.5878 O.3     1  UNL1       -0.4684
     25 O         138.6615  139.2697  167.9663 O.3     1  UNL1       -0.4684
     26 C         137.6695  138.5679  167.0869 C.3     1  UNL1        0.2526
@<TRIPOS>BOND
     1    23    24    1
     2    24    17    1
     3    17    18   ar
     4    18    19   ar
     5    19    20   ar
     6    20    16    1
     7    16    15    1
     8    15     1    1
     9     1     3    1
    10     3     4    1
    11     3     5    1
    12     5     6    1
    13     6     7    1
    14     7     8   ar
    15     8     9    1
    16     8    10   ar
    17    10    11   ar
    18    11    12   ar
    19    12    13   ar
    20    13    14    1
    21    20    21   ar
    22    21    22   ar
    23    22    25    1
    24    25    26    1
    25    22    17   ar
    26    13     7   ar
    27     1     2    1
@<TRIPOS>MOLECULE
*****
 26 27 0 0 0
SMALL
GASTEIGER

@<TRIPOS>ATOM
      1 N         141.4628  136.8896  162.5142 N.3     1  UNL1       -0.2953
      2 H         140.8988  136.3087  161.8939 H       1  UNL1        0.1233
      3 C         141.8701  138.0980  161.7244 C.3     1  UNL1        0.0983
      4 C         141.0114  138.5783  160.5921 C.3     1  UNL1        0.0210
      5 C         143.1360  138.8262  162.0668 C.3     1  UNL1        0.2209
      6 O         143.1945  140.3211  161.9572 O.3     1  UNL1       -0.4747
      7 C         142.9635  141.1717  163.1709 C.ar    1  UNL1        0.1306
      8 C         144.0627  141.3622  164.1736 C.ar    1  UNL1        0.0118
      9 C         145.3930  140.7020  163.9626 C.3     1  UNL1        0.0342
     10 C         143.8317  142.2128  165.3872 C.ar    1  UNL1       -0.0013
     11 C         142.5014  142.8729  165.5983 C.ar    1  UNL1       -0.0004
     12 C         141.4021  142.6825  164.5956 C.ar    1  UNL1       -0.0013
     13 C         141.6332  141.8318  163.3819 C.ar    1  UNL1        0.0118
     14 C         140.5340  141.6413  162.3792 C.3     1  UNL1        0.0342
     15 C         140.6815  137.0521  163.7844 C.3     1  UNL1        0.0734
     16 C         140.3840  138.4245  164.3115 C.3     1  UNL1        0.0435
     17 C         142.4377  139.8990  168.0341 C.ar    1  UNL1        0.1724
     18 C         143.1868  139.0493  167.0509 C.ar    1  UNL1        0.0397
     19 C         142.5022  138.5578  165.8100 C.ar    1  UNL1       -0.0009
     20 C         141.0686  138.9160  165.5524 C.ar    1  UNL1       -0.0176
     21 C         140.3196  139.7658  166.5356 C.ar    1  UNL1        0.0358
     22 C         141.0042  140.2573  167.7765 C.ar    1  UNL1        0.1721
     23 C         142.8637  139.7181  170.5906 C.3     1  UNL1        0.2526
     24 O         143.1223  140.3906  169.2750 O.3     1  UNL1       -0.4684
     25 O         140.2551  141.1071  168.7598 O.3     1  UNL1       -0.4684
     26 C         139.2475  140.4809  169.6776 C.3     1  UNL1        0.2526
@<TRIPOS>BOND
     1    23    24    1
     2    24    17    1
     3    17    18   ar
     4    18    19   ar
     5    19    20   ar
     6    20    16    1
     7    16    15    1
     8    15     1    1
     9     1     3    1
    10     3     4    1
    11     3     5    1
    12     5     6    1
    13     6     7    1
    14     7     8   ar
    15     8     9    1
    16     8    10   ar
    17    10    11   ar
    18    11    12   ar
    19    12    13   ar
    20    13    14    1
    21    20    21   ar
    22    21    22   ar
    23    22    25    1
    24    25    26    1
    25    22    17   ar
    26    13     7   ar
    27     1     2    1
@<TRIPOS>MOLECULE
*****
 26 27 0 0 0
SMALL
GASTEIGER

@<TRIPOS>ATOM
      1 N         137.8789  139.5839  162.2908 N.3     1  UNL1       -0.2953
      2 H         137.1962  140.0621  161.7029 H       1  UNL1        0.1233
      3 C         139.1295  139.4422  161.4746 C.3     1  UNL1        0.0983
      4 C         139.2237  138.3735  160.4262 C.3     1  UNL1        0.0210
      5 C         140.2857  140.3691  161.7068 C.3     1  UNL1        0.2209
      6 O         141.6458  139.8114  162.0057 O.3     1  UNL1       -0.4747
      7 C         142.1075  139.6819  163.4270 C.ar    1  UNL1        0.1306
      8 C         141.8634  138.4088  164.1818 C.ar    1  UNL1        0.0118
      9 C         141.1576  137.2653  163.5154 C.3     1  UNL1        0.0342
     10 C         142.3251  138.2793  165.6031 C.ar    1  UNL1       -0.0013
     11 C         143.0309  139.4229  166.2696 C.ar    1  UNL1       -0.0004
     12 C         143.2750  140.6959  165.5147 C.ar    1  UNL1       -0.0013
     13 C         142.8133  140.8254  164.0934 C.ar    1  UNL1        0.0118
     14 C         143.0574  142.0984  163.3385 C.3     1  UNL1        0.0342
     15 C         137.9156  140.3194  163.5976 C.3     1  UNL1        0.0734
     16 C         138.4599  139.6457  164.8223 C.3     1  UNL1        0.0435
     17 C         140.5911  142.0650  167.9616 C.ar    1  UNL1        0.1724
     18 C         140.3458  142.6498  166.6023 C.ar    1  UNL1        0.0397
     19 C         139.6354  141.8434  165.5559 C.ar    1  UNL1       -0.0009
     20 C         139.1703  140.4521  165.8688 C.ar    1  UNL1       -0.0176
     21 C         139.4156  139.8673  167.2280 C.ar    1  UNL1        0.0358
     22 C         140.1260  140.6737  168.2745 C.ar    1  UNL1        0.1721
     23 C         140.5150  143.7153  169.9667 C.3     1  UNL1        0.2526
     24 O         141.3015  142.8714  169.0080 O.3     1  UNL1       -0.4684
     25 O         140.3713  140.0887  169.6338 O.3     1  UNL1       -0.4684
     26 C         141.7127  139.5073  169.9692 C.3     1  UNL1        0.2526
@<TRIPOS>BOND
     1    23    24    1
     2    24    17    1
     3    17    18   ar
     4    18    19   ar
     5    19    20   ar
     6    20    16    1
     7    16    15    1
     8    15     1    1
     9     1     3    1
    10     3     4    1
    11     3     5    1
    12     5     6    1
    13     6     7    1
    14     7     8   ar
    15     8     9    1
    16     8    10   ar
    17    10    11   ar
    18    11    12   ar
    19    12    13   ar
    20    13    14    1
    21    20    21   ar
    22    21    22   ar
    23    22    25    1
    24    25    26    1
    25    22    17   ar
    26    13     7   ar
    27     1     2    1
@<TRIPOS>MOLECULE
*****
 26 27 0 0 0
SMALL
GASTEIGER

@<TRIPOS>ATOM
      1 N         142.4117  145.1403  162.2045 N.3     1  UNL1       -0.2953
      2 H         143.1056  145.6465  161.6545 H       1  UNL1        0.1233
      3 C         141.0880  145.3499  161.5306 C.3     1  UNL1        0.0983
      4 C         140.9883  145.2810  160.0355 C.3     1  UNL1        0.0210
      5 C         139.8641  145.6286  162.3518 C.3     1  UNL1        0.2209
      6 O         138.5611  144.9727  162.0024 O.3     1  UNL1       -0.4747
      7 C         138.2640  143.5865  162.4923 C.ar    1  UNL1        0.1306
      8 C         137.9545  143.3535  163.9414 C.ar    1  UNL1        0.0118
      9 C         137.9420  144.5067  164.9006 C.3     1  UNL1        0.0342
     10 C         137.6574  141.9673  164.4314 C.ar    1  UNL1       -0.0013
     11 C         137.6699  140.8140  163.4723 C.ar    1  UNL1       -0.0004
     12 C         137.9795  141.0470  162.0232 C.ar    1  UNL1       -0.0013
     13 C         138.2765  142.4333  161.5332 C.ar    1  UNL1        0.0118
     14 C         138.5861  142.6663  160.0841 C.3     1  UNL1        0.0342
     15 C         142.9427  143.7509  162.3986 C.3     1  UNL1        0.0734
     16 C         141.9949  142.5921  162.4928 C.3     1  UNL1        0.0435
     17 C         140.6252  141.1273  166.5213 C.ar    1  UNL1        0.1724
     18 C         140.9489  142.5782  166.3211 C.ar    1  UNL1        0.0397
     19 C         141.4055  143.0665  164.9783 C.ar    1  UNL1       -0.0009
     20 C         141.5383  142.1039  163.8357 C.ar    1  UNL1       -0.0176
     21 C         141.2146  140.6530  164.0358 C.ar    1  UNL1        0.0358
     22 C         140.7581  140.1647  165.3787 C.ar    1  UNL1        0.1721
     23 C         141.1695  140.1203  168.8536 C.3     1  UNL1        0.2526
     24 O         140.1687  140.6391  167.8641 O.3     1  UNL1       -0.4684
     25 O         140.4343  138.7138  165.5788 O.3     1  UNL1       -0.4684
     26 C         139.9701  137.8821  164.4200 C.3     1  UNL1        0.2526
@<TRIPOS>BOND
     1    23    24    1
     2    24    17    1
     3    17    18   ar
     4    18    19   ar
     5    19    20   ar
     6    20    16    1
     7    16    15    1
     8    15     1    1
     9     1     3    1
    10     3     4    1
    11     3     5    1
    12     5     6    1
    13     6     7    1
    14     7     8   ar
    15     8     9    1
    16     8    10   ar
    17    10    11   ar
    18    11    12   ar
    19    12    13   ar
    20    13    14    1
    21    20    21   ar
    22    21    22   ar
    23    22    25    1
    24    25    26    1
    25    22    17   ar
    26    13     7   ar
    27     1     2    1
@<TRIPOS>MOLECULE
*****
 26 27 0 0 0
SMALL
GASTEIGER

@<TRIPOS>ATOM
      1 N         139.1431  144.2123  161.3258 N.3     1  UNL1       -0.2953
      2 H         139.2186  144.9907  160.6711 H       1  UNL1        0.1233
      3 C         140.3575  143.3556  161.1219 C.3     1  UNL1        0.0983
      4 C         140.4117  141.9784  161.7138 C.3     1  UNL1        0.0210
      5 C         141.5175  143.8762  160.3262 C.3     1  UNL1        0.2209
      6 O         142.6323  144.6062  161.0151 O.3     1  UNL1       -0.4747
      7 C         143.3791  143.9481  162.1371 C.ar    1  UNL1        0.1306
      8 C         144.3805  142.8711  161.8415 C.ar    1  UNL1        0.0118
      9 C         144.6350  142.4523  160.4238 C.3     1  UNL1        0.0342
     10 C         145.1274  142.2129  162.9635 C.ar    1  UNL1       -0.0013
     11 C         144.8729  142.6317  164.3812 C.ar    1  UNL1       -0.0004
     12 C         143.8715  143.7087  164.6768 C.ar    1  UNL1       -0.0013
     13 C         143.1246  144.3669  163.5547 C.ar    1  UNL1        0.0118
     14 C         142.1232  145.4438  163.8504 C.3     1  UNL1        0.0342
     15 C         138.8621  144.8063  162.6742 C.3     1  UNL1        0.0734
     16 C         137.9894  144.0735  163.6495 C.3     1  UNL1        0.0435
     17 C         139.8149  141.1661  166.5589 C.ar    1  UNL1        0.1724
     18 C         140.2609  142.5982  166.5501 C.ar    1  UNL1        0.0397
     19 C         139.6524  143.5673  165.5803 C.ar    1  UNL1       -0.0009
     20 C         138.5979  143.1043  164.6193 C.ar    1  UNL1       -0.0176
     21 C         138.1519  141.6722  164.6281 C.ar    1  UNL1        0.0358
     22 C         138.7604  140.7031  165.5979 C.ar    1  UNL1        0.1721
     23 C         139.9098  140.1219  168.9360 C.3     1  UNL1        0.2526
     24 O         140.4234  140.1970  167.5288 O.3     1  UNL1       -0.4684
     25 O         138.3143  139.2710  165.6067 O.3     1  UNL1       -0.4684
     26 C         138.8340  138.3172  164.5723 C.3     1  UNL1        0.2526
@<TRIPOS>BOND
     1    23    24    1
     2    24    17    1
     3    17    18   ar
     4    18    19   ar
     5    19    20   ar
     6    20    16    1
     7    16    15    1
     8    15     1    1
     9     1     3    1
    10     3     4    1
    11     3     5    1
    12     5     6    1
    13     6     7    1
    14     7     8   ar
    15     8     9    1
    16     8    10   ar
    17    10    11   ar
    18    11    12   ar
    19    12    13   ar
    20    13    14    1
    21    20    21   ar
    22    21    22   ar
    23    22    25    1
    24    25    26    1
    25    22    17   ar
    26    13     7   ar
    27     1     2    1
@<TRIPOS>MOLECULE
*****
 26 27 0 0 0
SMALL
GASTEIGER

@<TRIPOS>ATOM
      1 N         141.9095  145.0915  161.7523 N.3     1  UNL1       -0.2953
      2 H         142.3366  144.3195  161.2406 H       1  UNL1        0.1233
      3 C         140.4494  145.0839  161.4084 C.3     1  UNL1        0.0983
      4 C         139.6000  146.2811  161.7167 C.3     1  UNL1        0.0210
      5 C         139.8389  143.8790  160.7562 C.3     1  UNL1        0.2209
      6 O         138.5029  143.3740  161.2149 O.3     1  UNL1       -0.4747
      7 C         138.4254  142.2967  162.2557 C.ar    1  UNL1        0.1306
      8 C         138.6791  140.8678  161.8765 C.ar    1  UNL1        0.0118
      9 C         139.0104  140.5161  160.4565 C.3     1  UNL1        0.0342
     10 C         138.6015  139.7905  162.9173 C.ar    1  UNL1       -0.0013
     11 C         138.2702  140.1421  164.3375 C.ar    1  UNL1       -0.0004
     12 C         138.0165  141.5710  164.7167 C.ar    1  UNL1       -0.0013
     13 C         138.0941  142.6483  163.6757 C.ar    1  UNL1        0.0118
     14 C         137.8403  144.0773  164.0549 C.3     1  UNL1        0.0342
     15 C         142.3441  144.9566  163.1817 C.3     1  UNL1        0.0734
     16 C         141.5073  144.1732  164.1492 C.3     1  UNL1        0.0435
     17 C         142.0588  139.7218  164.5103 C.ar    1  UNL1        0.1724
     18 C         141.7238  140.5369  165.7241 C.ar    1  UNL1        0.0397
     19 C         141.5400  142.0207  165.6037 C.ar    1  UNL1       -0.0009
     20 C         141.6911  142.6894  164.2695 C.ar    1  UNL1       -0.0176
     21 C         142.0261  141.8743  163.0558 C.ar    1  UNL1        0.0358
     22 C         142.2099  140.3904  163.1761 C.ar    1  UNL1        0.1721
     23 C         141.1012  137.3136  164.3260 C.3     1  UNL1        0.2526
     24 O         142.2426  138.2379  164.6306 O.3     1  UNL1       -0.4684
     25 O         142.5449  139.5753  161.9623 O.3     1  UNL1       -0.4684
     26 C         143.9745  139.2426  161.6533 C.3     1  UNL1        0.2526
@<TRIPOS>BOND
     1    23    24    1
     2    24    17    1
     3    17    18   ar
     4    18    19   ar
     5    19    20   ar
     6    20    16    1
     7    16    15    1
     8    15     1    1
     9     1     3    1
    10     3     4    1
    11     3     5    1
    12     5     6    1
    13     6     7    1
    14     7     8   ar
    15     8     9    1
    16     8    10   ar
    17    10    11   ar
    18    11    12   ar
    19    12    13   ar
    20    13    14    1
    21    20    21   ar
    22    21    22   ar
    23    22    25    1
    24    25    26    1
    25    22    17   ar
    26    13     7   ar
    27     1     2    1
@<TRIPOS>MOLECULE
*****
 26 27 0 0 0
SMALL
GASTEIGER

@<TRIPOS>ATOM
      1 N         140.7459  137.2195  163.6986 N.3     1  UNL1       -0.2953
      2 H         140.9531  136.7806  164.5957 H       1  UNL1        0.1233
      3 C         139.3696  137.8057  163.8109 C.3     1  UNL1        0.0983
      4 C         138.5647  138.0721  162.5735 C.3     1  UNL1        0.0210
      5 C         138.7984  138.1253  165.1605 C.3     1  UNL1        0.2209
      6 O         138.0317  139.3977  165.3682 O.3     1  UNL1       -0.4747
      7 C         138.7477  140.7157  165.3541 C.ar    1  UNL1        0.1306
      8 C         138.4664  141.7105  164.2673 C.ar    1  UNL1        0.0118
      9 C         137.4690  141.3874  163.1946 C.3     1  UNL1        0.0342
     10 C         139.1824  143.0285  164.2532 C.ar    1  UNL1       -0.0013
     11 C         140.1799  143.3516  165.3259 C.ar    1  UNL1       -0.0004
     12 C         140.4612  142.3568  166.4128 C.ar    1  UNL1       -0.0013
     13 C         139.7451  141.0388  166.4268 C.ar    1  UNL1        0.0118
     14 C         140.0264  140.0440  167.5136 C.3     1  UNL1        0.0342
     15 C         141.9126  138.1027  163.3689 C.3     1  UNL1        0.0734
     16 C         142.0474  139.4440  164.0268 C.3     1  UNL1        0.0435
     17 C         142.1697  143.1782  161.5187 C.ar    1  UNL1        0.1724
     18 C         141.2109  142.0764  161.1772 C.ar    1  UNL1        0.0397
     19 C         141.1701  140.8317  162.0132 C.ar    1  UNL1       -0.0009
     20 C         142.0881  140.6887  163.1908 C.ar    1  UNL1       -0.0176
     21 C         143.0470  141.7905  163.5323 C.ar    1  UNL1        0.0358
     22 C         143.0878  143.0352  162.6962 C.ar    1  UNL1        0.1721
     23 C         140.9451  145.1756  160.3959 C.3     1  UNL1        0.2526
     24 O         142.2105  144.4229  160.6826 O.3     1  UNL1       -0.4684
     25 O         144.0467  144.1370  163.0378 O.3     1  UNL1       -0.4684
     26 C         143.6472  145.2029  164.0146 C.3     1  UNL1        0.2526
@<TRIPOS>BOND
     1    23    24    1
     2    24    17    1
     3    17    18   ar
     4    18    19   ar
     5    19    20   ar
     6    20    16    1
     7    16    15    1
     8    15     1    1
     9     1     3    1
    10     3     4    1
    11     3     5    1
    12     5     6    1
    13     6     7    1
    14     7     8   ar
    15     8     9    1
    16     8    10   ar
    17    10    11   ar
    18    11    12   ar
    19    12    13   ar
    20    13    14    1
    21    20    21   ar
    22    21    22   ar
    23    22    25    1
    24    25    26    1
    25    22    17   ar
    26    13     7   ar
    27     1     2    1
@<TRIPOS>MOLECULE
*****
 26 27 0 0 0
SMALL
GASTEIGER

@<TRIPOS>ATOM
      1 N         144.4890  140.9824  164.5937 N.3     1  UNL1       -0.2953
      2 H         143.9660  141.0309  165.4681 H       1  UNL1        0.1233
      3 C         143.6349  140.2261  163.6196 C.3     1  UNL1        0.0983
      4 C         142.9628  140.9507  162.4913 C.3     1  UNL1        0.0210
      5 C         143.4529  138.7452  163.7740 C.3     1  UNL1        0.2209
      6 O         142.8110  138.1935  165.0125 O.3     1  UNL1       -0.4747
      7 C         141.4604  138.6861  165.4404 C.ar    1  UNL1        0.1306
      8 C         141.3342  139.5897  166.6311 C.ar    1  UNL1        0.0118
      9 C         142.5587  140.0006  167.3939 C.3     1  UNL1        0.0342
     10 C         139.9836  140.0823  167.0590 C.ar    1  UNL1       -0.0013
     11 C         138.7591  139.6714  166.2962 C.ar    1  UNL1       -0.0004
     12 C         138.8853  138.7678  165.1055 C.ar    1  UNL1       -0.0013
     13 C         140.2360  138.2752  164.6776 C.ar    1  UNL1        0.0118
     14 C         140.3622  137.3717  163.4869 C.3     1  UNL1        0.0342
     15 C         144.9313  142.3800  164.2756 C.3     1  UNL1        0.0734
     16 C         144.2412  143.5487  164.9142 C.3     1  UNL1        0.0435
     17 C         139.8841  144.3140  164.0898 C.ar    1  UNL1        0.1724
     18 C         140.2856  143.3123  165.1315 C.ar    1  UNL1        0.0397
     19 C         141.7380  143.0572  165.4063 C.ar    1  UNL1       -0.0009
     20 C         142.7888  143.8038  164.6394 C.ar    1  UNL1       -0.0176
     21 C         142.3873  144.8055  163.5976 C.ar    1  UNL1        0.0358
     22 C         140.9349  145.0606  163.3228 C.ar    1  UNL1        0.1721
     23 C         137.6485  143.6092  162.9693 C.3     1  UNL1        0.2526
     24 O         138.4317  144.5691  163.8149 O.3     1  UNL1       -0.4684
     25 O         140.5334  146.0624  162.2810 O.3     1  UNL1       -0.4684
     26 C         140.2509  145.6132  160.8780 C.3     1  UNL1        0.2526
@<TRIPOS>BOND
     1    23    24    1
     2    24    17    1
     3    17    18   ar
     4    18    19   ar
     5    19    20   ar
     6    20    16    1
     7    16    15    1
     8    15     1    1
     9     1     3    1
    10     3     4    1
    11     3     5    1
    12     5     6    1
    13     6     7    1
    14     7     8   ar
    15     8     9    1
    16     8    10   ar
    17    10    11   ar
    18    11    12   ar
    19    12    13   ar
    20    13    14    1
    21    20    21   ar
    22    21    22   ar
    23    22    25    1
    24    25    26    1
    25    22    17   ar
    26    13     7   ar
    27     1     2    1
