@<TRIPOS>MOLECULE
*****
 34 38 0 0 0
SMALL
GASTEIGER

@<TRIPOS>ATOM
      1 C         141.2367  141.8489  165.3101 C.ar    1  UNL1        0.0908
      2 C         141.0088  142.1819  166.7548 C.ar    1  UNL1        0.1496
      3 O         139.9527  143.2449  166.8243 O.2     1  UNL1       -0.4534
      4 C         139.5280  143.5688  165.4226 C.ar    1  UNL1        0.1454
      5 C         138.5211  144.5378  164.8776 C.ar    1  UNL1        0.0406
      6 C         138.3079  144.6441  163.3966 C.ar    1  UNL1        0.0395
      7 C         139.1015  143.7814  162.4608 C.ar    1  UNL1        0.1311
      8 O         138.8882  143.8877  160.9798 O.3     1  UNL1       -0.5058
      9 C         140.1083  142.8123  163.0058 C.ar    1  UNL1        0.0305
     10 C         140.3216  142.7060  164.4868 C.ar    1  UNL1        0.0421
     11 H         138.2593  144.4931  160.6393 H       1  UNL1        0.2922
     12 C         141.7132  141.5610  167.9245 C.ar    1  UNL1        0.0349
     13 C         141.3532  140.1737  168.3666 C.ar    1  UNL1        0.0061
     14 C         142.0576  139.5528  169.5364 C.ar    1  UNL1        0.0367
     15 C         143.1221  140.3193  170.2640 C.ar    1  UNL1        0.1337
     16 O         143.8265  139.6984  171.4337 O.3     1  UNL1       -0.5055
     17 C         143.4821  141.7067  169.8218 C.ar    1  UNL1        0.0367
     18 C         142.7776  142.3275  168.6521 C.ar    1  UNL1        0.0061
     19 H         143.6016  138.8317  171.7099 H       1  UNL1        0.2922
     20 O         143.5774  141.2679  164.3438 O.2     1  UNL1       -0.2698
     21 C         142.2092  140.8365  164.7815 C.2     1  UNL1        0.2521
     22 N         141.8132  139.3925  164.6905 N.am    1  UNL1       -0.2759
     23 C         142.4889  138.1343  164.2317 C.3     1  UNL1        0.0955
     24 C         141.2533  137.3505  164.5619 C.3     1  UNL1        0.0430
     25 C         140.5777  138.6086  165.0206 C.3     1  UNL1        0.0955
     26 C         140.9019  141.9495  162.0700 C.3     1  UNL1        0.0988
     27 N         142.2702  142.3799  161.6314 N.3     1  UNL1       -0.2917
     28 H         142.3673  142.1021  160.6547 H       1  UNL1        0.1236
     29 C         142.6634  143.8253  161.7115 C.3     1  UNL1        0.0960
     30 C         143.5032  144.3117  162.8553 C.3     1  UNL1        0.1029
     31 O         144.7660  143.5448  162.5961 O.3     1  UNL1       -0.3854
     32 C         143.9043  145.0646  164.0892 C.3     1  UNL1        0.0307
     33 C         142.5320  145.2476  163.5117 C.3     1  UNL1        0.0307
     34 H         144.6541  142.9959  161.8042 H       1  UNL1        0.2103
@<TRIPOS>BOND
     1    20    21    2
     2    21     1    1
     3     1     2   ar
     4     2    12    1
     5    12    13   ar
     6    13    14   ar
     7    14    15   ar
     8    15    16    1
     9    15    17   ar
    10    17    18   ar
    11     2     3   ar
    12     3     4   ar
    13     4     5   ar
    14     5     6   ar
    15     6     7   ar
    16     7     8    1
    17     7     9   ar
    18     9    26    1
    19    26    27    1
    20    27    29    1
    21    29    30    1
    22    30    31    1
    23    30    32    1
    24    32    33    1
    25     9    10   ar
    26    21    22   am
    27    22    23    1
    28    23    24    1
    29    24    25    1
    30    10     1   ar
    31    25    22    1
    32    18    12   ar
    33    10     4   ar
    34    33    30    1
    35    16    19    1
    36     8    11    1
    37    27    28    1
    38    31    34    1
@<TRIPOS>MOLECULE
*****
 34 38 0 0 0
SMALL
GASTEIGER

@<TRIPOS>ATOM
      1 C         141.1111  141.1463  165.3785 C.ar    1  UNL1        0.0908
      2 C         140.9722  140.8299  166.8381 C.ar    1  UNL1        0.1496
      3 O         140.1537  139.5793  166.9654 O.2     1  UNL1       -0.4534
      4 C         139.7867  139.1229  165.5844 C.ar    1  UNL1        0.1454
      5 C         138.9903  137.9506  165.0934 C.ar    1  UNL1        0.0406
      6 C         138.7855  137.7467  163.6215 C.ar    1  UNL1        0.0395
      7 C         139.3772  138.7152  162.6407 C.ar    1  UNL1        0.1311
      8 O         139.1724  138.5113  161.1687 O.3     1  UNL1       -0.5058
      9 C         140.1737  139.8875  163.1318 C.ar    1  UNL1        0.0305
     10 C         140.3785  140.0914  164.6037 C.ar    1  UNL1        0.0421
     11 H         138.6749  137.7789  160.8620 H       1  UNL1        0.2922
     12 C         141.5502  141.6245  167.9715 C.ar    1  UNL1        0.0349
     13 C         140.6902  142.6000  168.7189 C.ar    1  UNL1        0.0061
     14 C         141.2683  143.3946  169.8522 C.ar    1  UNL1        0.0367
     15 C         142.7064  143.2136  170.2382 C.ar    1  UNL1        0.1337
     16 O         143.2845  144.0082  171.3716 O.3     1  UNL1       -0.5055
     17 C         143.5664  142.2381  169.4908 C.ar    1  UNL1        0.0367
     18 C         142.9884  141.4435  168.3575 C.ar    1  UNL1        0.0061
     19 H         142.7472  144.6176  171.8384 H       1  UNL1        0.2922
     20 O         141.1363  143.6065  164.5437 O.2     1  UNL1       -0.2698
     21 C         141.8525  142.3129  164.7959 C.2     1  UNL1        0.2521
     22 N         143.3102  142.1859  164.4655 N.am    1  UNL1       -0.2759
     23 C         144.3511  143.1005  163.8911 C.3     1  UNL1        0.0955
     24 C         145.3715  142.0063  163.9982 C.3     1  UNL1        0.0430
     25 C         144.3306  141.0917  164.5726 C.3     1  UNL1        0.0955
     26 C         140.7654  140.8560  162.1510 C.3     1  UNL1        0.0988
     27 N         140.0273  142.1139  161.8008 N.3     1  UNL1       -0.2917
     28 H         140.1009  142.2267  160.7897 H       1  UNL1        0.1236
     29 C         138.5744  142.2522  162.1472 C.3     1  UNL1        0.0960
     30 C         138.1248  143.3427  163.0739 C.3     1  UNL1        0.1029
     31 O         138.3459  144.5385  162.1956 O.3     1  UNL1       -0.3854
     32 C         137.5984  144.0179  164.3056 C.3     1  UNL1        0.0307
     33 C         137.7476  142.5256  164.2739 C.3     1  UNL1        0.0307
     34 H         138.6957  144.2497  161.3382 H       1  UNL1        0.2103
@<TRIPOS>BOND
     1    20    21    2
     2    21     1    1
     3     1     2   ar
     4     2    12    1
     5    12    13   ar
     6    13    14   ar
     7    14    15   ar
     8    15    16    1
     9    15    17   ar
    10    17    18   ar
    11     2     3   ar
    12     3     4   ar
    13     4     5   ar
    14     5     6   ar
    15     6     7   ar
    16     7     8    1
    17     7     9   ar
    18     9    26    1
    19    26    27    1
    20    27    29    1
    21    29    30    1
    22    30    31    1
    23    30    32    1
    24    32    33    1
    25     9    10   ar
    26    21    22   am
    27    22    23    1
    28    23    24    1
    29    24    25    1
    30    10     1   ar
    31    25    22    1
    32    18    12   ar
    33    10     4   ar
    34    33    30    1
    35    16    19    1
    36     8    11    1
    37    27    28    1
    38    31    34    1
@<TRIPOS>MOLECULE
*****
 34 38 0 0 0
SMALL
GASTEIGER

@<TRIPOS>ATOM
      1 C         141.2348  141.6614  165.2896 C.ar    1  UNL1        0.0908
      2 C         141.0319  142.0594  166.7215 C.ar    1  UNL1        0.1496
      3 O         140.0054  143.1526  166.7576 O.2     1  UNL1       -0.4534
      4 C         139.5740  143.4302  165.3481 C.ar    1  UNL1        0.1454
      5 C         138.5875  144.4031  164.7736 C.ar    1  UNL1        0.0406
      6 C         138.3607  144.4544  163.2917 C.ar    1  UNL1        0.0395
      7 C         139.1205  143.5327  162.3844 C.ar    1  UNL1        0.1311
      8 O         138.8938  143.5840  160.9025 O.3     1  UNL1       -0.5058
      9 C         140.1071  142.5598  162.9589 C.ar    1  UNL1        0.0305
     10 C         140.3338  142.5086  164.4408 C.ar    1  UNL1        0.0421
     11 H         138.2775  144.1918  160.5436 H       1  UNL1        0.2922
     12 C         141.7324  141.4681  167.9088 C.ar    1  UNL1        0.0349
     13 C         142.7781  142.2616  168.6346 C.ar    1  UNL1        0.0061
     14 C         143.4786  141.6702  169.8218 C.ar    1  UNL1        0.0367
     15 C         143.1334  140.2854  170.2833 C.ar    1  UNL1        0.1337
     16 O         143.8339  139.6941  171.4706 O.3     1  UNL1       -0.5055
     17 C         142.0877  139.4919  169.5575 C.ar    1  UNL1        0.0367
     18 C         141.3872  140.0832  168.3703 C.ar    1  UNL1        0.0061
     19 H         144.4871  140.1898  171.9240 H       1  UNL1        0.2922
     20 O         141.7051  139.1828  164.6689 O.2     1  UNL1       -0.2698
     21 C         142.1739  140.6021  164.7935 C.2     1  UNL1        0.2521
     22 N         143.5819  140.9622  164.4220 N.am    1  UNL1       -0.2759
     23 C         144.7694  140.2050  163.9060 C.3     1  UNL1        0.0955
     24 C         145.5730  141.4715  163.8968 C.3     1  UNL1        0.0430
     25 C         144.3855  142.2288  164.4128 C.3     1  UNL1        0.0955
     26 C         140.8669  141.6382  162.0516 C.3     1  UNL1        0.0988
     27 N         140.1315  140.6268  161.2232 N.3     1  UNL1       -0.2917
     28 H         140.1711  140.9523  160.2574 H       1  UNL1        0.1236
     29 C         140.5787  139.1950  161.2162 C.3     1  UNL1        0.0960
     30 C         139.9480  138.2077  162.1530 C.3     1  UNL1        0.1029
     31 O         141.0755  137.2289  162.2977 O.3     1  UNL1       -0.3854
     32 C         138.9257  137.5603  163.0395 C.3     1  UNL1        0.0307
     33 C         138.6015  138.8436  162.3336 C.3     1  UNL1        0.0307
     34 H         141.8302  137.5239  161.7645 H       1  UNL1        0.2103
@<TRIPOS>BOND
     1    20    21    2
     2    21     1    1
     3     1     2   ar
     4     2    12    1
     5    12    13   ar
     6    13    14   ar
     7    14    15   ar
     8    15    16    1
     9    15    17   ar
    10    17    18   ar
    11     2     3   ar
    12     3     4   ar
    13     4     5   ar
    14     5     6   ar
    15     6     7   ar
    16     7     8    1
    17     7     9   ar
    18     9    26    1
    19    26    27    1
    20    27    29    1
    21    29    30    1
    22    30    31    1
    23    30    32    1
    24    32    33    1
    25     9    10   ar
    26    21    22   am
    27    22    23    1
    28    23    24    1
    29    24    25    1
    30    10     1   ar
    31    25    22    1
    32    18    12   ar
    33    10     4   ar
    34    33    30    1
    35    16    19    1
    36     8    11    1
    37    27    28    1
    38    31    34    1
@<TRIPOS>MOLECULE
*****
 34 38 0 0 0
SMALL
GASTEIGER

@<TRIPOS>ATOM
      1 C         141.4500  141.5569  165.1540 C.ar    1  UNL1        0.0908
      2 C         141.9506  141.8056  166.5460 C.ar    1  UNL1        0.1496
      3 O         143.0601  142.8119  166.4666 O.2     1  UNL1       -0.4534
      4 C         143.2452  143.1852  165.0256 C.ar    1  UNL1        0.1454
      5 C         144.1913  144.1312  164.3474 C.ar    1  UNL1        0.0406
      6 C         144.1422  144.3015  162.8580 C.ar    1  UNL1        0.0395
      7 C         143.1470  143.5259  162.0467 C.ar    1  UNL1        0.1311
      8 O         143.0980  143.6963  160.5572 O.3     1  UNL1       -0.5058
      9 C         142.2010  142.5800  162.7249 C.ar    1  UNL1        0.0305
     10 C         142.2500  142.4096  164.2144 C.ar    1  UNL1        0.0421
     11 H         143.6890  144.2873  160.1335 H       1  UNL1        0.2922
     12 C         141.4327  141.1610  167.7975 C.ar    1  UNL1        0.0349
     13 C         142.2476  140.1111  168.4929 C.ar    1  UNL1        0.0061
     14 C         141.7297  139.4666  169.7445 C.ar    1  UNL1        0.0367
     15 C         140.3969  139.8720  170.3006 C.ar    1  UNL1        0.1337
     16 O         139.8790  139.2274  171.5521 O.3     1  UNL1       -0.5055
     17 C         139.5820  140.9219  169.6052 C.ar    1  UNL1        0.0367
     18 C         140.0999  141.5664  168.3536 C.ar    1  UNL1        0.0061
     19 H         140.3881  138.5716  171.9865 H       1  UNL1        0.2922
     20 O         138.9292  141.1156  164.7061 O.2     1  UNL1       -0.2698
     21 C         140.3435  140.6201  164.7692 C.2     1  UNL1        0.2521
     22 N         140.6514  139.1877  164.4475 N.am    1  UNL1       -0.2759
     23 C         139.8400  137.9947  164.0371 C.3     1  UNL1        0.0955
     24 C         141.0869  137.1621  163.9925 C.3     1  UNL1        0.0430
     25 C         141.8983  138.3550  164.4028 C.3     1  UNL1        0.0955
     26 C         141.2058  141.8044  161.9137 C.3     1  UNL1        0.0988
     27 N         140.0789  142.5177  161.2273 N.3     1  UNL1       -0.2917
     28 H         139.2672  141.9020  161.2768 H       1  UNL1        0.1236
     29 C         139.6327  143.8628  161.7188 C.3     1  UNL1        0.0960
     30 C         138.5469  143.9625  162.7490 C.3     1  UNL1        0.1029
     31 O         137.4205  143.3091  162.0045 O.3     1  UNL1       -0.3854
     32 C         137.8523  144.2892  164.0378 C.3     1  UNL1        0.0307
     33 C         139.2962  144.6506  163.8513 C.3     1  UNL1        0.0307
     34 H         137.7288  143.0362  161.1262 H       1  UNL1        0.2103
@<TRIPOS>BOND
     1    20    21    2
     2    21     1    1
     3     1     2   ar
     4     2    12    1
     5    12    13   ar
     6    13    14   ar
     7    14    15   ar
     8    15    16    1
     9    15    17   ar
    10    17    18   ar
    11     2     3   ar
    12     3     4   ar
    13     4     5   ar
    14     5     6   ar
    15     6     7   ar
    16     7     8    1
    17     7     9   ar
    18     9    26    1
    19    26    27    1
    20    27    29    1
    21    29    30    1
    22    30    31    1
    23    30    32    1
    24    32    33    1
    25     9    10   ar
    26    21    22   am
    27    22    23    1
    28    23    24    1
    29    24    25    1
    30    10     1   ar
    31    25    22    1
    32    18    12   ar
    33    10     4   ar
    34    33    30    1
    35    16    19    1
    36     8    11    1
    37    27    28    1
    38    31    34    1
@<TRIPOS>MOLECULE
*****
 34 38 0 0 0
SMALL
GASTEIGER

@<TRIPOS>ATOM
      1 C         142.2211  143.0713  165.5510 C.ar    1  UNL1        0.0908
      2 C         141.4405  142.5589  166.7249 C.ar    1  UNL1        0.1496
      3 O         140.0117  142.9812  166.5513 O.2     1  UNL1       -0.4534
      4 C         139.9092  143.7545  165.2701 C.ar    1  UNL1        0.1454
      5 C         138.7489  144.4151  164.5866 C.ar    1  UNL1        0.0406
      6 C         138.9542  145.1315  163.2848 C.ar    1  UNL1        0.0395
      7 C         140.3197  145.1872  162.6666 C.ar    1  UNL1        0.1311
      8 O         140.5249  145.9036  161.3647 O.3     1  UNL1       -0.5058
      9 C         141.4800  144.5266  163.3501 C.ar    1  UNL1        0.0305
     10 C         141.2748  143.8102  164.6519 C.ar    1  UNL1        0.0421
     11 H         139.8001  146.3162  160.9377 H       1  UNL1        0.2922
     12 C         141.9920  141.7639  167.8712 C.ar    1  UNL1        0.0349
     13 C         141.6438  140.3118  168.0130 C.ar    1  UNL1        0.0061
     14 C         142.1952  139.5168  169.1592 C.ar    1  UNL1        0.0367
     15 C         143.0948  140.1739  170.1637 C.ar    1  UNL1        0.1337
     16 O         143.6462  139.3789  171.3100 O.3     1  UNL1       -0.5055
     17 C         143.4429  141.6260  170.0219 C.ar    1  UNL1        0.0367
     18 C         142.8915  142.4210  168.8756 C.ar    1  UNL1        0.0061
     19 H         143.4287  138.4718  171.3985 H       1  UNL1        0.2922
     20 O         144.6788  143.8166  165.9439 O.2     1  UNL1       -0.2698
     21 C         143.6902  142.8787  165.3172 C.2     1  UNL1        0.2521
     22 N         144.1708  141.7479  164.4565 N.am    1  UNL1       -0.2759
     23 C         145.5139  141.2527  164.0084 C.3     1  UNL1        0.0955
     24 C         144.8502  140.1489  163.2395 C.3     1  UNL1        0.0430
     25 C         143.5072  140.6441  163.6876 C.3     1  UNL1        0.0955
     26 C         142.8455  144.5823  162.7318 C.3     1  UNL1        0.0988
     27 N         143.0226  144.2712  161.2752 N.3     1  UNL1       -0.2917
     28 H         143.7651  144.8806  160.9321 H       1  UNL1        0.1236
     29 C         143.3714  142.8779  160.8428 C.3     1  UNL1        0.0960
     30 C         144.4133  142.6593  159.7860 C.3     1  UNL1        0.1029
     31 O         145.6306  142.5035  160.6487 O.3     1  UNL1       -0.3854
     32 C         145.0325  142.4948  158.4297 C.3     1  UNL1        0.0307
     33 C         143.5579  142.7392  158.5565 C.3     1  UNL1        0.0307
     34 H         145.3788  142.5885  161.5816 H       1  UNL1        0.2103
@<TRIPOS>BOND
     1    20    21    2
     2    21     1    1
     3     1     2   ar
     4     2    12    1
     5    12    13   ar
     6    13    14   ar
     7    14    15   ar
     8    15    16    1
     9    15    17   ar
    10    17    18   ar
    11     2     3   ar
    12     3     4   ar
    13     4     5   ar
    14     5     6   ar
    15     6     7   ar
    16     7     8    1
    17     7     9   ar
    18     9    26    1
    19    26    27    1
    20    27    29    1
    21    29    30    1
    22    30    31    1
    23    30    32    1
    24    32    33    1
    25     9    10   ar
    26    21    22   am
    27    22    23    1
    28    23    24    1
    29    24    25    1
    30    10     1   ar
    31    25    22    1
    32    18    12   ar
    33    10     4   ar
    34    33    30    1
    35    16    19    1
    36     8    11    1
    37    27    28    1
    38    31    34    1
@<TRIPOS>MOLECULE
*****
 34 38 0 0 0
SMALL
GASTEIGER

@<TRIPOS>ATOM
      1 C         141.3721  141.9325  165.3161 C.ar    1  UNL1        0.0908
      2 C         141.1203  142.2466  166.7610 C.ar    1  UNL1        0.1496
      3 O         140.0836  143.3288  166.8263 O.2     1  UNL1       -0.4534
      4 C         139.6948  143.6835  165.4216 C.ar    1  UNL1        0.1454
      5 C         138.7185  144.6807  164.8719 C.ar    1  UNL1        0.0406
      6 C         138.5385  144.8150  163.3889 C.ar    1  UNL1        0.0395
      7 C         139.3348  143.9521  162.4555 C.ar    1  UNL1        0.1311
      8 O         139.1547  144.0864  160.9724 O.3     1  UNL1       -0.5058
      9 C         140.3111  142.9548  163.0052 C.ar    1  UNL1        0.0305
     10 C         140.4911  142.8205  164.4883 C.ar    1  UNL1        0.0421
     11 H         138.5449  144.7094  160.6290 H       1  UNL1        0.2922
     12 C         141.7879  141.5932  167.9347 C.ar    1  UNL1        0.0349
     13 C         142.8519  142.3266  168.6962 C.ar    1  UNL1        0.0061
     14 C         143.5195  141.6733  169.8699 C.ar    1  UNL1        0.0367
     15 C         143.1231  140.2866  170.2820 C.ar    1  UNL1        0.1337
     16 O         143.7907  139.6332  171.4556 O.3     1  UNL1       -0.5055
     17 C         142.0591  139.5532  169.5204 C.ar    1  UNL1        0.0367
     18 C         141.3915  140.2065  168.3468 C.ar    1  UNL1        0.0061
     19 H         144.4554  140.0914  171.9313 H       1  UNL1        0.2922
     20 O         143.7265  141.3182  164.4056 O.2     1  UNL1       -0.2698
     21 C         142.3357  140.9098  164.7910 C.2     1  UNL1        0.2521
     22 N         141.9084  139.4787  164.6515 N.am    1  UNL1       -0.2759
     23 C         142.5675  138.2161  164.1811 C.3     1  UNL1        0.0955
     24 C         141.3041  137.4549  164.4542 C.3     1  UNL1        0.0430
     25 C         140.6450  138.7175  164.9245 C.3     1  UNL1        0.0955
     26 C         141.1074  142.0918  162.0718 C.3     1  UNL1        0.0988
     27 N         140.5833  140.7473  161.6626 N.3     1  UNL1       -0.2917
     28 H         140.5871  140.1629  162.4985 H       1  UNL1        0.1236
     29 C         139.2163  140.6278  161.0568 C.3     1  UNL1        0.0960
     30 C         138.2934  139.5309  161.4987 C.3     1  UNL1        0.1029
     31 O         137.0360  140.3197  161.7150 O.3     1  UNL1       -0.3854
     32 C         137.8073  138.1600  161.8655 C.3     1  UNL1        0.0307
     33 C         139.2304  138.3612  161.4359 C.3     1  UNL1        0.0307
     34 H         137.2011  141.2536  161.5113 H       1  UNL1        0.2103
@<TRIPOS>BOND
     1    20    21    2
     2    21     1    1
     3     1     2   ar
     4     2    12    1
     5    12    13   ar
     6    13    14   ar
     7    14    15   ar
     8    15    16    1
     9    15    17   ar
    10    17    18   ar
    11     2     3   ar
    12     3     4   ar
    13     4     5   ar
    14     5     6   ar
    15     6     7   ar
    16     7     8    1
    17     7     9   ar
    18     9    26    1
    19    26    27    1
    20    27    29    1
    21    29    30    1
    22    30    31    1
    23    30    32    1
    24    32    33    1
    25     9    10   ar
    26    21    22   am
    27    22    23    1
    28    23    24    1
    29    24    25    1
    30    10     1   ar
    31    25    22    1
    32    18    12   ar
    33    10     4   ar
    34    33    30    1
    35    16    19    1
    36     8    11    1
    37    27    28    1
    38    31    34    1
@<TRIPOS>MOLECULE
*****
 34 38 0 0 0
SMALL
GASTEIGER

@<TRIPOS>ATOM
      1 C         141.5322  142.9129  165.2594 C.ar    1  UNL1        0.0908
      2 C         140.4005  142.9661  166.2424 C.ar    1  UNL1        0.1496
      3 O         139.3233  143.8340  165.6624 O.2     1  UNL1       -0.4534
      4 C         139.7893  144.3173  164.3211 C.ar    1  UNL1        0.1454
      5 C         139.1469  145.2022  163.2943 C.ar    1  UNL1        0.0406
      6 C         139.8698  145.5177  162.0184 C.ar    1  UNL1        0.0395
      7 C         141.2350  144.9484  161.7693 C.ar    1  UNL1        0.1311
      8 O         141.9578  145.2640  160.4934 O.3     1  UNL1       -0.5058
      9 C         141.8774  144.0635  162.7961 C.ar    1  UNL1        0.0305
     10 C         141.1545  143.7480  164.0720 C.ar    1  UNL1        0.0421
     11 H         141.5565  145.8167  159.8520 H       1  UNL1        0.2922
     12 C         140.3540  142.2730  167.5718 C.ar    1  UNL1        0.0349
     13 C         140.0971  140.7967  167.6395 C.ar    1  UNL1        0.0061
     14 C         140.0506  140.1037  168.9689 C.ar    1  UNL1        0.0367
     15 C         140.2611  140.8868  170.2308 C.ar    1  UNL1        0.1337
     16 O         140.2147  140.1938  171.5603 O.3     1  UNL1       -0.5055
     17 C         140.5181  142.3631  170.1632 C.ar    1  UNL1        0.0367
     18 C         140.5645  143.0562  168.8337 C.ar    1  UNL1        0.0061
     19 H         140.0542  139.2716  171.6025 H       1  UNL1        0.2922
     20 O         144.0357  142.8600  165.9519 O.2     1  UNL1       -0.2698
     21 C         142.8163  142.1573  165.4333 C.2     1  UNL1        0.2521
     22 N         142.8809  140.6988  165.0885 N.am    1  UNL1       -0.2759
     23 C         143.9486  139.6460  165.1275 C.3     1  UNL1        0.0955
     24 C         142.9721  138.6363  164.6010 C.3     1  UNL1        0.0430
     25 C         141.9044  139.6891  164.5621 C.3     1  UNL1        0.0955
     26 C         143.2426  143.4942  162.5470 C.3     1  UNL1        0.0988
     27 N         143.4656  142.5554  161.3986 N.3     1  UNL1       -0.2917
     28 H         144.0131  143.0641  160.7044 H       1  UNL1        0.1236
     29 C         144.1619  141.2461  161.6245 C.3     1  UNL1        0.0960
     30 C         143.4963  139.9635  161.2221 C.3     1  UNL1        0.1029
     31 O         144.6211  139.0002  161.4608 O.3     1  UNL1       -0.3854
     32 C         142.4400  139.0154  160.7369 C.3     1  UNL1        0.0307
     33 C         142.1403  140.4813  160.8437 C.3     1  UNL1        0.0307
     34 H         145.3966  139.4831  161.7870 H       1  UNL1        0.2103
@<TRIPOS>BOND
     1    20    21    2
     2    21     1    1
     3     1     2   ar
     4     2    12    1
     5    12    13   ar
     6    13    14   ar
     7    14    15   ar
     8    15    16    1
     9    15    17   ar
    10    17    18   ar
    11     2     3   ar
    12     3     4   ar
    13     4     5   ar
    14     5     6   ar
    15     6     7   ar
    16     7     8    1
    17     7     9   ar
    18     9    26    1
    19    26    27    1
    20    27    29    1
    21    29    30    1
    22    30    31    1
    23    30    32    1
    24    32    33    1
    25     9    10   ar
    26    21    22   am
    27    22    23    1
    28    23    24    1
    29    24    25    1
    30    10     1   ar
    31    25    22    1
    32    18    12   ar
    33    10     4   ar
    34    33    30    1
    35    16    19    1
    36     8    11    1
    37    27    28    1
    38    31    34    1
@<TRIPOS>MOLECULE
*****
 34 38 0 0 0
SMALL
GASTEIGER

@<TRIPOS>ATOM
      1 C         140.9549  141.5627  165.3848 C.ar    1  UNL1        0.0908
      2 C         140.9293  142.0756  166.7941 C.ar    1  UNL1        0.1496
      3 O         140.0474  143.2885  166.8299 O.2     1  UNL1       -0.4534
      4 C         139.5281  143.5251  165.4427 C.ar    1  UNL1        0.1454
      5 C         138.6169  144.5740  164.8775 C.ar    1  UNL1        0.0406
      6 C         138.2666  144.5563  163.4191 C.ar    1  UNL1        0.0395
      7 C         138.8275  143.4897  162.5259 C.ar    1  UNL1        0.1311
      8 O         138.4772  143.4720  161.0675 O.3     1  UNL1       -0.5058
      9 C         139.7387  142.4408  163.0912 C.ar    1  UNL1        0.0305
     10 C         140.0889  142.4585  164.5496 C.ar    1  UNL1        0.0421
     11 H         137.9080  144.1272  160.7144 H       1  UNL1        0.2922
     12 C         141.6576  141.4803  167.9625 C.ar    1  UNL1        0.0349
     13 C         142.7613  142.2474  168.6282 C.ar    1  UNL1        0.0061
     14 C         143.4897  141.6520  169.7966 C.ar    1  UNL1        0.0367
     15 C         143.1143  140.2896  170.2992 C.ar    1  UNL1        0.1337
     16 O         143.8426  139.6942  171.4676 O.3     1  UNL1       -0.5055
     17 C         142.0105  139.5224  169.6335 C.ar    1  UNL1        0.0367
     18 C         141.2822  140.1178  168.4651 C.ar    1  UNL1        0.0061
     19 H         144.5321  140.1734  171.8835 H       1  UNL1        0.2922
     20 O         141.0141  139.0466  164.7400 O.2     1  UNL1       -0.2698
     21 C         141.7134  140.3643  164.8964 C.2     1  UNL1        0.2521
     22 N         143.1714  140.4836  164.5643 N.am    1  UNL1       -0.2759
     23 C         144.2264  139.5408  164.0663 C.3     1  UNL1        0.0955
     24 C         145.2332  140.6524  164.0948 C.3     1  UNL1        0.0430
     25 C         144.1782  141.5952  164.5928 C.3     1  UNL1        0.0955
     26 C         140.2995  141.3741  162.1980 C.3     1  UNL1        0.0988
     27 N         141.5663  141.6246  161.4348 N.3     1  UNL1       -0.2917
     28 H         141.3445  141.4995  160.4471 H       1  UNL1        0.1236
     29 C         142.2671  142.9451  161.5574 C.3     1  UNL1        0.0960
     30 C         141.9293  144.0637  160.6167 C.3     1  UNL1        0.1029
     31 O         142.0882  145.2363  161.5385 O.3     1  UNL1       -0.3854
     32 C         141.5362  144.7750  159.3559 C.3     1  UNL1        0.0307
     33 C         141.6530  143.2795  159.3682 C.3     1  UNL1        0.0307
     34 H         142.3487  144.9227  162.4187 H       1  UNL1        0.2103
@<TRIPOS>BOND
     1    20    21    2
     2    21     1    1
     3     1     2   ar
     4     2    12    1
     5    12    13   ar
     6    13    14   ar
     7    14    15   ar
     8    15    16    1
     9    15    17   ar
    10    17    18   ar
    11     2     3   ar
    12     3     4   ar
    13     4     5   ar
    14     5     6   ar
    15     6     7   ar
    16     7     8    1
    17     7     9   ar
    18     9    26    1
    19    26    27    1
    20    27    29    1
    21    29    30    1
    22    30    31    1
    23    30    32    1
    24    32    33    1
    25     9    10   ar
    26    21    22   am
    27    22    23    1
    28    23    24    1
    29    24    25    1
    30    10     1   ar
    31    25    22    1
    32    18    12   ar
    33    10     4   ar
    34    33    30    1
    35    16    19    1
    36     8    11    1
    37    27    28    1
    38    31    34    1
@<TRIPOS>MOLECULE
*****
 34 38 0 0 0
SMALL
GASTEIGER

@<TRIPOS>ATOM
      1 C         141.0045  141.2112  165.3828 C.ar    1  UNL1        0.0908
      2 C         140.9237  140.8537  166.8373 C.ar    1  UNL1        0.1496
      3 O         140.1564  139.5704  166.9573 O.2     1  UNL1       -0.4534
      4 C         139.7629  139.1348  165.5769 C.ar    1  UNL1        0.1454
      5 C         138.9951  137.9458  165.0803 C.ar    1  UNL1        0.0406
      6 C         138.7514  137.7708  163.6107 C.ar    1  UNL1        0.0395
      7 C         139.2756  138.7849  162.6376 C.ar    1  UNL1        0.1311
      8 O         139.0319  138.6098  161.1678 O.3     1  UNL1       -0.5058
      9 C         140.0434  139.9739  163.1341 C.ar    1  UNL1        0.0305
     10 C         140.2871  140.1489  164.6038 C.ar    1  UNL1        0.0421
     11 H         138.5522  137.8671  160.8577 H       1  UNL1        0.2922
     12 C         141.5078  141.6412  167.9725 C.ar    1  UNL1        0.0349
     13 C         142.9454  141.4512  168.3557 C.ar    1  UNL1        0.0061
     14 C         143.5294  142.2387  169.4910 C.ar    1  UNL1        0.0367
     15 C         142.6758  143.2163  170.2430 C.ar    1  UNL1        0.1337
     16 O         143.2598  144.0038  171.3782 O.3     1  UNL1       -0.5055
     17 C         141.2381  143.4063  169.8597 C.ar    1  UNL1        0.0367
     18 C         140.6541  142.6188  168.7245 C.ar    1  UNL1        0.0061
     19 H         144.1579  143.8851  171.6176 H       1  UNL1        0.2922
     20 O         140.8963  143.6688  164.5472 O.2     1  UNL1       -0.2698
     21 C         141.6834  142.4190  164.8080 C.2     1  UNL1        0.2521
     22 N         143.1497  142.3768  164.4942 N.am    1  UNL1       -0.2759
     23 C         144.1422  143.3504  163.9311 C.3     1  UNL1        0.0955
     24 C         145.2232  142.3172  164.0504 C.3     1  UNL1        0.0430
     25 C         144.2307  141.3437  164.6134 C.3     1  UNL1        0.0955
     26 C         140.5676  140.9879  162.1610 C.3     1  UNL1        0.0988
     27 N         141.4392  140.5525  161.0206 N.3     1  UNL1       -0.2917
     28 H         141.3014  141.2289  160.2697 H       1  UNL1        0.1236
     29 C         142.9203  140.4193  161.2171 C.3     1  UNL1        0.0960
     30 C         143.5854  139.0882  161.0274 C.3     1  UNL1        0.1029
     31 O         144.0890  139.2463  159.6233 O.3     1  UNL1       -0.3854
     32 C         144.0755  137.7022  161.3254 C.3     1  UNL1        0.0307
     33 C         143.3127  138.4679  162.3656 C.3     1  UNL1        0.0307
     34 H         143.8400  140.1214  159.2871 H       1  UNL1        0.2103
@<TRIPOS>BOND
     1    20    21    2
     2    21     1    1
     3     1     2   ar
     4     2    12    1
     5    12    13   ar
     6    13    14   ar
     7    14    15   ar
     8    15    16    1
     9    15    17   ar
    10    17    18   ar
    11     2     3   ar
    12     3     4   ar
    13     4     5   ar
    14     5     6   ar
    15     6     7   ar
    16     7     8    1
    17     7     9   ar
    18     9    26    1
    19    26    27    1
    20    27    29    1
    21    29    30    1
    22    30    31    1
    23    30    32    1
    24    32    33    1
    25     9    10   ar
    26    21    22   am
    27    22    23    1
    28    23    24    1
    29    24    25    1
    30    10     1   ar
    31    25    22    1
    32    18    12   ar
    33    10     4   ar
    34    33    30    1
    35    16    19    1
    36     8    11    1
    37    27    28    1
    38    31    34    1
