@<TRIPOS>MOLECULE
*****
 21 23 0 0 0
SMALL
GASTEIGER

@<TRIPOS>ATOM
      1 C         137.9329  140.5262  163.1995 C.3     1  UNL1        0.0766
      2 C         138.3572  139.1773  163.6998 C.3     1  UNL1        0.0209
      3 C         139.1951  139.0665  164.9390 C.3     1  UNL1        0.0104
      4 C         139.6087  140.3046  165.6779 C.3     1  UNL1        0.0444
      5 C         139.1844  141.6536  165.1776 C.ar    1  UNL1       -0.0211
      6 C         139.5980  142.8917  165.9165 C.ar    1  UNL1       -0.0042
      7 C         139.1736  144.2406  165.4161 C.ar    1  UNL1       -0.0003
      8 C         138.3357  144.3514  164.1769 C.ar    1  UNL1       -0.0003
      9 C         137.9221  143.1133  163.4380 C.ar    1  UNL1       -0.0033
     10 C         138.3465  141.7644  163.9384 C.ar    1  UNL1       -0.0117
     11 C         140.4466  140.1938  166.9171 C.ar    1  UNL1       -0.0175
     12 C         141.9423  140.1563  166.8102 C.ar    1  UNL1       -0.0030
     13 C         142.7802  140.0455  168.0494 C.ar    1  UNL1        0.0119
     14 C         142.1225  139.9722  169.3955 C.ar    1  UNL1        0.0682
     15 CL        142.9604  139.8614  170.6347 Cl      1  UNL1       -0.0814
     16 C         140.6267  140.0097  169.5024 C.ar    1  UNL1        0.0679
     17 CL        139.9689  139.9364  170.8485 Cl      1  UNL1       -0.0814
     18 C         139.7888  140.1205  168.2632 C.ar    1  UNL1        0.0083
     19 C         137.4818  139.8818  160.7233 C.3     1  UNL1        0.0861
     20 N         137.0950  140.6370  161.9603 N.3     1  UNL1       -0.2940
     21 H         136.1556  140.3290  162.2115 H       1  UNL1        0.1235
@<TRIPOS>BOND
     1    19    20    1
     2     1    20    1
     3     1     2    1
     4     2     3    1
     5     3     4    1
     6     4    11    1
     7    11    12   ar
     8    12    13   ar
     9    13    14   ar
    10    14    15    1
    11    14    16   ar
    12    16    17    1
    13    16    18   ar
    14     4     5    1
    15     5     6   ar
    16     6     7   ar
    17     7     8   ar
    18     8     9   ar
    19     9    10   ar
    20    10     1    1
    21    18    11   ar
    22    10     5   ar
    23    20    21    1
@<TRIPOS>MOLECULE
*****
 21 23 0 0 0
SMALL
GASTEIGER

@<TRIPOS>ATOM
      1 C         140.7289  144.9150  163.4522 C.3     1  UNL1        0.0766
      2 C         139.4115  144.8467  164.1661 C.3     1  UNL1        0.0209
      3 C         139.2609  143.9798  165.3810 C.3     1  UNL1        0.0104
      4 C         140.4277  143.1814  165.8820 C.3     1  UNL1        0.0444
      5 C         141.7452  143.2498  165.1681 C.ar    1  UNL1       -0.0211
      6 C         142.9120  142.4514  165.6691 C.ar    1  UNL1       -0.0042
      7 C         144.2294  142.5198  164.9552 C.ar    1  UNL1       -0.0003
      8 C         144.3800  143.3866  163.7403 C.ar    1  UNL1       -0.0003
      9 C         143.2132  144.1850  163.2393 C.ar    1  UNL1       -0.0033
     10 C         141.8958  144.1166  163.9532 C.ar    1  UNL1       -0.0117
     11 C         140.2771  142.3146  167.0969 C.ar    1  UNL1       -0.0175
     12 C         139.8491  140.8846  166.9495 C.ar    1  UNL1       -0.0030
     13 C         139.6985  140.0178  168.1644 C.ar    1  UNL1        0.0119
     14 C         139.9759  140.5810  169.5267 C.ar    1  UNL1        0.0682
     15 CL        139.8253  139.7142  170.7416 Cl      1  UNL1       -0.0814
     16 C         140.4038  142.0111  169.6741 C.ar    1  UNL1        0.0679
     17 CL        140.6812  142.5744  171.0363 Cl      1  UNL1       -0.0814
     18 C         140.5545  142.8780  168.4592 C.ar    1  UNL1        0.0083
     19 C         139.6642  146.3463  161.5633 C.3     1  UNL1        0.0861
     20 N         140.8795  145.7819  162.2373 N.3     1  UNL1       -0.2940
     21 H         141.4592  146.5751  162.5116 H       1  UNL1        0.1235
@<TRIPOS>BOND
     1    19    20    1
     2     1    20    1
     3     1     2    1
     4     2     3    1
     5     3     4    1
     6     4    11    1
     7    11    12   ar
     8    12    13   ar
     9    13    14   ar
    10    14    15    1
    11    14    16   ar
    12    16    17    1
    13    16    18   ar
    14     4     5    1
    15     5     6   ar
    16     6     7   ar
    17     7     8   ar
    18     8     9   ar
    19     9    10   ar
    20    10     1    1
    21    18    11   ar
    22    10     5   ar
    23    20    21    1
@<TRIPOS>MOLECULE
*****
 21 23 0 0 0
SMALL
GASTEIGER

@<TRIPOS>ATOM
      1 C         143.4016  143.5873  163.8815 C.3     1  UNL1        0.0766
      2 C         144.0217  142.6392  164.8647 C.3     1  UNL1        0.0209
      3 C         143.1929  142.0590  165.9721 C.3     1  UNL1        0.0104
      4 C         141.7440  142.4267  166.0963 C.3     1  UNL1        0.0444
      5 C         141.1239  143.3749  165.1132 C.ar    1  UNL1       -0.0211
      6 C         139.6750  143.7427  165.2374 C.ar    1  UNL1       -0.0042
      7 C         139.0550  144.6908  164.2543 C.ar    1  UNL1       -0.0003
      8 C         139.8838  145.2711  163.1469 C.ar    1  UNL1       -0.0003
      9 C         141.3326  144.9033  163.0226 C.ar    1  UNL1       -0.0033
     10 C         141.9527  143.9552  164.0058 C.ar    1  UNL1       -0.0117
     11 C         140.9152  141.8465  167.2037 C.ar    1  UNL1       -0.0175
     12 C         140.2633  140.5068  167.0298 C.ar    1  UNL1       -0.0030
     13 C         139.4345  139.9265  168.1372 C.ar    1  UNL1        0.0119
     14 C         139.2576  140.6859  169.4185 C.ar    1  UNL1        0.0682
     15 CL        138.4288  140.1056  170.5260 Cl      1  UNL1       -0.0814
     16 C         139.9095  142.0256  169.5926 C.ar    1  UNL1        0.0679
     17 CL        139.7326  142.7850  170.8740 Cl      1  UNL1       -0.0814
     18 C         140.7383  142.6059  168.4852 C.ar    1  UNL1        0.0083
     19 C         144.6259  143.3132  161.6065 C.3     1  UNL1        0.0861
     20 N         144.2304  144.1676  162.7741 N.3     1  UNL1       -0.2940
     21 H         143.7065  144.9574  162.3970 H       1  UNL1        0.1235
@<TRIPOS>BOND
     1    19    20    1
     2     1    20    1
     3     1     2    1
     4     2     3    1
     5     3     4    1
     6     4    11    1
     7    11    12   ar
     8    12    13   ar
     9    13    14   ar
    10    14    15    1
    11    14    16   ar
    12    16    17    1
    13    16    18   ar
    14     4     5    1
    15     5     6   ar
    16     6     7   ar
    17     7     8   ar
    18     8     9   ar
    19     9    10   ar
    20    10     1    1
    21    18    11   ar
    22    10     5   ar
    23    20    21    1
@<TRIPOS>MOLECULE
*****
 21 23 0 0 0
SMALL
GASTEIGER

@<TRIPOS>ATOM
      1 C         138.8456  138.4480  163.1272 C.3     1  UNL1        0.0766
      2 C         139.6241  137.5983  164.0873 C.3     1  UNL1        0.0209
      3 C         140.0638  138.1656  165.4045 C.3     1  UNL1        0.0104
      4 C         139.7251  139.5825  165.7614 C.3     1  UNL1        0.0444
      5 C         138.9465  140.4323  164.8012 C.ar    1  UNL1       -0.0211
      6 C         138.6078  141.8492  165.1582 C.ar    1  UNL1       -0.0042
      7 C         137.8293  142.6989  164.1980 C.ar    1  UNL1       -0.0003
      8 C         137.3896  142.1316  162.8809 C.ar    1  UNL1       -0.0003
      9 C         137.7283  140.7146  162.5239 C.ar    1  UNL1       -0.0033
     10 C         138.5068  139.8650  163.4841 C.ar    1  UNL1       -0.0117
     11 C         140.1648  140.1498  167.0785 C.ar    1  UNL1       -0.0175
     12 C         139.3063  139.9724  168.2957 C.ar    1  UNL1       -0.0030
     13 C         139.7460  140.5397  169.6128 C.ar    1  UNL1        0.0119
     14 C         141.0443  141.2844  169.7128 C.ar    1  UNL1        0.0682
     15 CL        141.4840  141.8517  171.0299 Cl      1  UNL1       -0.0814
     16 C         141.9028  141.4618  168.4956 C.ar    1  UNL1        0.0679
     17 CL        143.2011  142.2065  168.5956 Cl      1  UNL1       -0.0814
     18 C         141.4631  140.8945  167.1785 C.ar    1  UNL1        0.0083
     19 C         139.2167  138.1376  160.5745 C.3     1  UNL1        0.0861
     20 N         138.4059  137.8807  161.8100 N.3     1  UNL1       -0.2940
     21 H         138.3591  136.8684  161.9263 H       1  UNL1        0.1235
@<TRIPOS>BOND
     1    19    20    1
     2     1    20    1
     3     1     2    1
     4     2     3    1
     5     3     4    1
     6     4    11    1
     7    11    12   ar
     8    12    13   ar
     9    13    14   ar
    10    14    15    1
    11    14    16   ar
    12    16    17    1
    13    16    18   ar
    14     4     5    1
    15     5     6   ar
    16     6     7   ar
    17     7     8   ar
    18     8     9   ar
    19     9    10   ar
    20    10     1    1
    21    18    11   ar
    22    10     5   ar
    23    20    21    1
@<TRIPOS>MOLECULE
*****
 21 23 0 0 0
SMALL
GASTEIGER

@<TRIPOS>ATOM
      1 C         143.7229  139.0366  162.5011 C.3     1  UNL1        0.0766
      2 C         142.7874  137.9968  163.0429 C.3     1  UNL1        0.0209
      3 C         142.1411  138.1941  164.3821 C.3     1  UNL1        0.0104
      4 C         142.4303  139.4313  165.1794 C.3     1  UNL1        0.0444
      5 C         143.3658  140.4712  164.6377 C.ar    1  UNL1       -0.0211
      6 C         143.6549  141.7083  165.4350 C.ar    1  UNL1       -0.0042
      7 C         144.5904  142.7481  164.8932 C.ar    1  UNL1       -0.0003
      8 C         145.2368  142.5508  163.5541 C.ar    1  UNL1       -0.0003
      9 C         144.9476  141.3137  162.7567 C.ar    1  UNL1       -0.0033
     10 C         144.0121  140.2739  163.2985 C.ar    1  UNL1       -0.0117
     11 C         141.7839  139.6286  166.5186 C.ar    1  UNL1       -0.0175
     12 C         140.3293  139.9844  166.6042 C.ar    1  UNL1       -0.0030
     13 C         139.6830  140.1817  167.9433 C.ar    1  UNL1        0.0119
     14 C         140.4913  140.0232  169.1969 C.ar    1  UNL1        0.0682
     15 CL        139.8450  140.2205  170.5361 Cl      1  UNL1       -0.0814
     16 C         141.9460  139.6674  169.1114 C.ar    1  UNL1        0.0679
     17 CL        142.7543  139.5089  170.3649 Cl      1  UNL1       -0.0814
     18 C         142.5923  139.4701  167.7722 C.ar    1  UNL1        0.0083
     19 C         143.6326  139.2162  159.9109 C.3     1  UNL1        0.0861
     20 N         144.3692  138.8393  161.1620 N.3     1  UNL1       -0.2940
     21 H         145.2334  139.3811  161.1694 H       1  UNL1        0.1235
@<TRIPOS>BOND
     1    19    20    1
     2     1    20    1
     3     1     2    1
     4     2     3    1
     5     3     4    1
     6     4    11    1
     7    11    12   ar
     8    12    13   ar
     9    13    14   ar
    10    14    15    1
    11    14    16   ar
    12    16    17    1
    13    16    18   ar
    14     4     5    1
    15     5     6   ar
    16     6     7   ar
    17     7     8   ar
    18     8     9   ar
    19     9    10   ar
    20    10     1    1
    21    18    11   ar
    22    10     5   ar
    23    20    21    1
@<TRIPOS>MOLECULE
*****
 21 23 0 0 0
SMALL
GASTEIGER

@<TRIPOS>ATOM
      1 C         143.1030  138.3686  163.0386 C.3     1  UNL1        0.0766
      2 C         144.1833  139.0432  163.8310 C.3     1  UNL1        0.0209
      3 C         143.8787  139.6040  165.1885 C.3     1  UNL1        0.0104
      4 C         142.4939  139.4902  165.7535 C.3     1  UNL1        0.0444
      5 C         141.4136  138.8156  164.9611 C.ar    1  UNL1       -0.0211
      6 C         140.0288  138.7019  165.5261 C.ar    1  UNL1       -0.0042
      7 C         138.9485  138.0273  164.7336 C.ar    1  UNL1       -0.0003
      8 C         139.2531  137.4665  163.3762 C.ar    1  UNL1       -0.0003
      9 C         140.6379  137.5803  162.8111 C.ar    1  UNL1       -0.0033
     10 C         141.7181  138.2549  163.6036 C.ar    1  UNL1       -0.0117
     11 C         142.1893  140.0510  167.1110 C.ar    1  UNL1       -0.0175
     12 C         142.5830  139.2902  168.3423 C.ar    1  UNL1       -0.0030
     13 C         142.2784  139.8510  169.6998 C.ar    1  UNL1        0.0119
     14 C         141.5802  141.1726  169.8260 C.ar    1  UNL1        0.0682
     15 CL        141.2756  141.7334  171.1834 Cl      1  UNL1       -0.0814
     16 C         141.1865  141.9334  168.5946 C.ar    1  UNL1        0.0679
     17 CL        140.4883  143.2550  168.7207 Cl      1  UNL1       -0.0814
     18 C         141.4911  141.3726  167.2371 C.ar    1  UNL1        0.0083
     19 C         143.3001  138.6822  160.4670 C.3     1  UNL1        0.0861
     20 N         143.4076  137.8079  161.6811 N.3     1  UNL1       -0.2940
     21 H         144.3677  137.4648  161.7128 H       1  UNL1        0.1235
@<TRIPOS>BOND
     1    19    20    1
     2     1    20    1
     3     1     2    1
     4     2     3    1
     5     3     4    1
     6     4    11    1
     7    11    12   ar
     8    12    13   ar
     9    13    14   ar
    10    14    15    1
    11    14    16   ar
    12    16    17    1
    13    16    18   ar
    14     4     5    1
    15     5     6   ar
    16     6     7   ar
    17     7     8   ar
    18     8     9   ar
    19     9    10   ar
    20    10     1    1
    21    18    11   ar
    22    10     5   ar
    23    20    21    1
@<TRIPOS>MOLECULE
*****
 21 23 0 0 0
SMALL
GASTEIGER

@<TRIPOS>ATOM
      1 C         138.4496  139.3027  166.9670 C.3     1  UNL1        0.0766
      2 C         138.5970  139.3683  165.4757 C.3     1  UNL1        0.0209
      3 C         139.5273  140.3694  164.8574 C.3     1  UNL1        0.0104
      4 C         140.3102  141.3048  165.7303 C.3     1  UNL1        0.0444
      5 C         140.1629  141.2392  167.2217 C.ar    1  UNL1       -0.0211
      6 C         140.9458  142.1746  168.0946 C.ar    1  UNL1       -0.0042
      7 C         140.7984  142.1089  169.5859 C.ar    1  UNL1       -0.0003
      8 C         139.8680  141.1078  170.2042 C.ar    1  UNL1       -0.0003
      9 C         139.0851  140.1724  169.3313 C.ar    1  UNL1       -0.0033
     10 C         139.2325  140.2381  167.8400 C.ar    1  UNL1       -0.0117
     11 C         141.2406  142.3059  165.1120 C.ar    1  UNL1       -0.0175
     12 C         140.7187  143.6399  164.6670 C.ar    1  UNL1       -0.0030
     13 C         141.6490  144.6409  164.0487 C.ar    1  UNL1        0.0119
     14 C         143.1012  144.3080  163.8753 C.ar    1  UNL1        0.0682
     15 CL        144.0316  145.3091  163.2570 Cl      1  UNL1       -0.0814
     16 C         143.6232  142.9740  164.3203 C.ar    1  UNL1        0.0679
     17 CL        145.0755  142.6411  164.1469 Cl      1  UNL1       -0.0814
     18 C         142.6929  141.9729  164.9386 C.ar    1  UNL1        0.0083
     19 C         137.3234  136.9615  166.9405 C.3     1  UNL1        0.0861
     20 N         137.5193  138.3016  167.5853 N.3     1  UNL1       -0.2940
     21 H         137.8610  138.1265  168.5303 H       1  UNL1        0.1235
@<TRIPOS>BOND
     1    19    20    1
     2     1    20    1
     3     1     2    1
     4     2     3    1
     5     3     4    1
     6     4    11    1
     7    11    12   ar
     8    12    13   ar
     9    13    14   ar
    10    14    15    1
    11    14    16   ar
    12    16    17    1
    13    16    18   ar
    14     4     5    1
    15     5     6   ar
    16     6     7   ar
    17     7     8   ar
    18     8     9   ar
    19     9    10   ar
    20    10     1    1
    21    18    11   ar
    22    10     5   ar
    23    20    21    1
@<TRIPOS>MOLECULE
*****
 21 23 0 0 0
SMALL
GASTEIGER

@<TRIPOS>ATOM
      1 C         139.8595  140.6964  168.4314 C.3     1  UNL1        0.0766
      2 C         140.3814  142.0975  168.5517 C.3     1  UNL1        0.0209
      3 C         140.4355  142.9841  167.3430 C.3     1  UNL1        0.0104
      4 C         139.9678  142.4696  166.0139 C.3     1  UNL1        0.0444
      5 C         139.4458  141.0684  165.8935 C.ar    1  UNL1       -0.0211
      6 C         138.9781  140.5539  164.5645 C.ar    1  UNL1       -0.0042
      7 C         138.4562  139.1528  164.4442 C.ar    1  UNL1       -0.0003
      8 C         138.4021  138.2662  165.6529 C.ar    1  UNL1       -0.0003
      9 C         138.8698  138.7807  166.9820 C.ar    1  UNL1       -0.0033
     10 C         139.3917  140.1818  167.1023 C.ar    1  UNL1       -0.0117
     11 C         140.0219  143.3561  164.8052 C.ar    1  UNL1       -0.0175
     12 C         138.8105  144.1399  164.3951 C.ar    1  UNL1       -0.0030
     13 C         138.8646  145.0265  163.1864 C.ar    1  UNL1        0.0119
     14 C         140.1301  145.1293  162.3877 C.ar    1  UNL1        0.0682
     15 CL        140.1842  146.0159  161.1789 Cl      1  UNL1       -0.0814
     16 C         141.3416  144.3455  162.7977 C.ar    1  UNL1        0.0679
     17 CL        142.6071  144.4482  161.9991 Cl      1  UNL1       -0.0814
     18 C         141.2875  143.4589  164.0065 C.ar    1  UNL1        0.0083
     19 C         140.4727  140.2367  170.9138 C.3     1  UNL1        0.0861
     20 N         139.8054  139.8098  169.6401 N.3     1  UNL1       -0.2940
     21 H         138.8189  139.6684  169.8576 H       1  UNL1        0.1235
@<TRIPOS>BOND
     1    19    20    1
     2     1    20    1
     3     1     2    1
     4     2     3    1
     5     3     4    1
     6     4    11    1
     7    11    12   ar
     8    12    13   ar
     9    13    14   ar
    10    14    15    1
    11    14    16   ar
    12    16    17    1
    13    16    18   ar
    14     4     5    1
    15     5     6   ar
    16     6     7   ar
    17     7     8   ar
    18     8     9   ar
    19     9    10   ar
    20    10     1    1
    21    18    11   ar
    22    10     5   ar
    23    20    21    1
@<TRIPOS>MOLECULE
*****
 21 23 0 0 0
SMALL
GASTEIGER

@<TRIPOS>ATOM
      1 C         141.9031  140.4173  168.2963 C.3     1  UNL1        0.0766
      2 C         141.1228  141.6544  168.6291 C.3     1  UNL1        0.0209
      3 C         140.7498  142.6204  167.5439 C.3     1  UNL1        0.0104
      4 C         141.1571  142.3494  166.1260 C.3     1  UNL1        0.0444
      5 C         141.9374  141.1123  165.7931 C.ar    1  UNL1       -0.0211
      6 C         142.3447  140.8413  164.3752 C.ar    1  UNL1       -0.0042
      7 C         143.1250  139.6042  164.0424 C.ar    1  UNL1       -0.0003
      8 C         143.4980  138.6382  165.1276 C.ar    1  UNL1       -0.0003
      9 C         143.0907  138.9092  166.5456 C.ar    1  UNL1       -0.0033
     10 C         142.3104  140.1462  166.8783 C.ar    1  UNL1       -0.0117
     11 C         140.7840  143.3154  165.0408 C.ar    1  UNL1       -0.0175
     12 C         141.8284  144.2097  164.4412 C.ar    1  UNL1       -0.0030
     13 C         141.4554  145.1757  163.3560 C.ar    1  UNL1        0.0119
     14 C         140.0380  145.2475  162.8705 C.ar    1  UNL1        0.0682
     15 CL        139.6650  146.2136  161.7853 Cl      1  UNL1       -0.0814
     16 C         138.9935  144.3533  163.4701 C.ar    1  UNL1        0.0679
     17 CL        137.5761  144.4251  162.9846 Cl      1  UNL1       -0.0814
     18 C         139.3665  143.3872  164.5553 C.ar    1  UNL1        0.0083
     19 C         142.8900  139.9538  170.6545 C.3     1  UNL1        0.0861
     20 N         142.2761  139.4513  169.3815 N.3     1  UNL1       -0.2940
     21 H         141.4228  138.9565  169.6414 H       1  UNL1        0.1235
@<TRIPOS>BOND
     1    19    20    1
     2     1    20    1
     3     1     2    1
     4     2     3    1
     5     3     4    1
     6     4    11    1
     7    11    12   ar
     8    12    13   ar
     9    13    14   ar
    10    14    15    1
    11    14    16   ar
    12    16    17    1
    13    16    18   ar
    14     4     5    1
    15     5     6   ar
    16     6     7   ar
    17     7     8   ar
    18     8     9   ar
    19     9    10   ar
    20    10     1    1
    21    18    11   ar
    22    10     5   ar
    23    20    21    1
