@<TRIPOS>MOLECULE
*****
 30 34 0 0 0
SMALL
GASTEIGER

@<TRIPOS>ATOM
      1 C         139.1390  140.1227  166.5948 C.3     1  UNL1        0.0002
      2 C         138.3887  138.9854  167.2221 C.3     1  UNL1        0.0001
      3 C         139.2468  139.8764  168.0705 C.3     1  UNL1        0.0037
      4 N         140.2519  142.5191  162.9522 N.pl3   1  UNL1       -0.2782
      5 C         140.1345  141.0266  162.8609 C.3     1  UNL1        0.0936
      6 C         139.7635  140.2277  164.0751 C.3     1  UNL1        0.0216
      7 C         139.5099  140.9215  165.3806 C.3     1  UNL1        0.0034
      8 C         139.6273  142.4141  165.4719 C.3     1  UNL1        0.0216
      9 C         139.9983  143.2129  164.2577 C.3     1  UNL1        0.0936
     10 CL        141.7358  145.7144  158.0954 Cl      1  UNL1       -0.0790
     11 C         141.3648  144.9156  159.3096 C.ar    1  UNL1        0.0960
     12 C         141.8119  143.4893  159.4344 C.ar    1  UNL1        0.1147
     13 N         141.4409  142.6904  160.6486 N.ar    1  UNL1       -0.2112
     14 C         140.6229  143.3180  161.7380 C.ar    1  UNL1        0.2202
     15 N         140.1758  144.7443  161.6133 N.ar    1  UNL1       -0.2112
     16 C         140.5468  145.5431  160.3991 C.ar    1  UNL1        0.1147
     17 C         139.8044  140.2486  169.4123 C.3     1  UNL1        0.0474
     18 C         141.2389  139.9531  169.7365 C.3     1  UNL1        0.2071
     19 O         142.1298  139.3339  168.7007 O.3     1  UNL1       -0.4602
     20 C         142.5519  140.1302  167.5016 C.ar    1  UNL1        0.2250
     21 C         142.7133  141.6177  167.6081 C.ar    1  UNL1        0.0593
     22 C         143.1355  142.4140  166.4091 C.ar    1  UNL1        0.0256
     23 C         143.3961  141.7228  165.1036 C.ar    1  UNL1        0.1038
     24 C         143.2347  140.2353  164.9972 C.ar    1  UNL1        0.1212
     25 N         142.8126  139.4390  166.1962 N.ar    1  UNL1       -0.2086
     26 N         143.8183  142.5191  163.9045 N.ar    1  UNL1       -0.2073
     27 C         144.5341  141.9855  162.6992 C.ar    1  UNL1        0.1246
     28 C         144.7569  143.1254  161.7500 C.ar    1  UNL1        0.1445
     29 N         144.1788  144.3635  162.3687 N.ar    1  UNL1       -0.1268
     30 N         143.5986  143.9887  163.7002 N.ar    1  UNL1       -0.0594
@<TRIPOS>BOND
     1    10    11    1
     2    11    12   ar
     3    12    13   ar
     4    13    14   ar
     5    14     4    1
     6     4     5    1
     7     5     6    1
     8     6     7    1
     9     1     7    1
    10     1     2    1
    11     2     3    1
    12     3    17    1
    13    17    18    1
    14    18    19    1
    15    19    20    1
    16    20    21   ar
    17    21    22   ar
    18    22    23   ar
    19    23    26    1
    20    26    27   ar
    21    27    28   ar
    22    28    29   ar
    23    29    30   ar
    24    23    24   ar
    25    24    25   ar
    26     7     8    1
    27     8     9    1
    28    14    15   ar
    29    15    16   ar
    30    16    11   ar
    31     9     4    1
    32     3     1    1
    33    25    20   ar
    34    30    26   ar
@<TRIPOS>MOLECULE
*****
 30 34 0 0 0
SMALL
GASTEIGER

@<TRIPOS>ATOM
      1 C         138.1428  139.0825  165.9359 C.3     1  UNL1        0.0002
      2 C         137.6707  138.1118  166.9775 C.3     1  UNL1        0.0001
      3 C         138.5195  139.2833  167.3739 C.3     1  UNL1        0.0037
      4 N         138.3081  140.4161  161.6413 N.pl3   1  UNL1       -0.2782
      5 C         137.7511  141.3323  162.6902 C.3     1  UNL1        0.0936
      6 C         137.6961  140.8878  164.1218 C.3     1  UNL1        0.0216
      7 C         138.1979  139.5270  164.5044 C.3     1  UNL1        0.0034
      8 C         138.7548  138.6108  163.4554 C.3     1  UNL1        0.0216
      9 C         138.8099  139.0553  162.0239 C.3     1  UNL1        0.0936
     10 CL        138.5284  142.1942  155.9150 Cl      1  UNL1       -0.0790
     11 C         138.4733  141.7497  157.3466 C.ar    1  UNL1        0.0960
     12 C         138.5630  142.7616  158.4501 C.ar    1  UNL1        0.1147
     13 N         138.5079  142.3171  159.8817 N.ar    1  UNL1       -0.2112
     14 C         138.3631  140.8606  160.2097 C.ar    1  UNL1        0.2202
     15 N         138.2734  139.8487  159.1062 N.ar    1  UNL1       -0.2112
     16 C         138.3285  140.2932  157.6746 C.ar    1  UNL1        0.1147
     17 C         139.2271  140.0755  168.4330 C.3     1  UNL1        0.0474
     18 C         140.5147  140.7749  168.1118 C.3     1  UNL1        0.2071
     19 O         141.2164  140.4966  166.8157 O.3     1  UNL1       -0.4602
     20 C         141.0366  141.4248  165.6510 C.ar    1  UNL1        0.2250
     21 C         140.3527  142.7458  165.8435 C.ar    1  UNL1        0.0593
     22 C         140.1730  143.6740  164.6790 C.ar    1  UNL1        0.0256
     23 C         140.6772  143.2811  163.3220 C.ar    1  UNL1        0.1038
     24 C         141.3611  141.9600  163.1296 C.ar    1  UNL1        0.1212
     25 N         141.5409  141.0319  164.2941 N.ar    1  UNL1       -0.2086
     26 N         140.4974  144.2093  162.1574 N.ar    1  UNL1       -0.2073
     27 C         141.3820  144.2888  160.9486 C.ar    1  UNL1        0.1246
     28 C         140.8329  145.3496  160.0413 C.ar    1  UNL1        0.1445
     29 N         139.6089  145.9256  160.6893 N.ar    1  UNL1       -0.1268
     30 N         139.4016  145.2208  161.9971 N.ar    1  UNL1       -0.0594
@<TRIPOS>BOND
     1    10    11    1
     2    11    12   ar
     3    12    13   ar
     4    13    14   ar
     5    14     4    1
     6     4     5    1
     7     5     6    1
     8     6     7    1
     9     1     7    1
    10     1     2    1
    11     2     3    1
    12     3    17    1
    13    17    18    1
    14    18    19    1
    15    19    20    1
    16    20    21   ar
    17    21    22   ar
    18    22    23   ar
    19    23    26    1
    20    26    27   ar
    21    27    28   ar
    22    28    29   ar
    23    29    30   ar
    24    23    24   ar
    25    24    25   ar
    26     7     8    1
    27     8     9    1
    28    14    15   ar
    29    15    16   ar
    30    16    11   ar
    31     9     4    1
    32     3     1    1
    33    25    20   ar
    34    30    26   ar
@<TRIPOS>MOLECULE
*****
 30 34 0 0 0
SMALL
GASTEIGER

@<TRIPOS>ATOM
      1 C         138.4260  138.7595  166.2935 C.3     1  UNL1        0.0002
      2 C         137.4037  138.3927  167.3281 C.3     1  UNL1        0.0001
      3 C         138.5482  139.2921  167.6904 C.3     1  UNL1        0.0037
      4 N         139.9849  138.4723  162.0819 N.pl3   1  UNL1       -0.2782
      5 C         140.5508  137.5878  163.1531 C.3     1  UNL1        0.0936
      6 C         140.0311  137.6835  164.5569 C.3     1  UNL1        0.0216
      7 C         138.9456  138.6638  164.8896 C.3     1  UNL1        0.0034
      8 C         138.3798  139.5483  163.8185 C.3     1  UNL1        0.0216
      9 C         138.8994  139.4526  162.4146 C.3     1  UNL1        0.0936
     10 CL        142.0636  138.0895  156.4665 Cl      1  UNL1       -0.0790
     11 C         141.5439  138.1852  157.8704 C.ar    1  UNL1        0.0960
     12 C         142.4854  138.0461  159.0298 C.ar    1  UNL1        0.1147
     13 N         141.9658  138.1418  160.4336 N.ar    1  UNL1       -0.2112
     14 C         140.5046  138.3766  160.6781 C.ar    1  UNL1        0.2202
     15 N         139.5631  138.5157  159.5187 N.ar    1  UNL1       -0.2112
     16 C         140.0828  138.4200  158.1149 C.ar    1  UNL1        0.1147
     17 C         139.2795  140.1188  168.7061 C.3     1  UNL1        0.0474
     18 C         140.4416  140.9688  168.2852 C.3     1  UNL1        0.2071
     19 O         141.1236  140.7109  166.9744 O.3     1  UNL1       -0.4602
     20 C         140.8992  141.6382  165.8169 C.ar    1  UNL1        0.2250
     21 C         140.0435  142.8582  165.9882 C.ar    1  UNL1        0.0593
     22 C         139.8191  143.7856  164.8309 C.ar    1  UNL1        0.0256
     23 C         140.4505  143.4930  163.5021 C.ar    1  UNL1        0.1038
     24 C         141.3062  142.2730  163.3307 C.ar    1  UNL1        0.1212
     25 N         141.5306  141.3456  164.4881 N.ar    1  UNL1       -0.2086
     26 N         140.2261  144.4203  162.3446 N.ar    1  UNL1       -0.2073
     27 C         140.9911  144.4212  161.0543 C.ar    1  UNL1        0.1246
     28 C         140.4352  145.5110  160.1865 C.ar    1  UNL1        0.1445
     29 N         139.3266  146.1838  160.9405 N.ar    1  UNL1       -0.1268
     30 N         139.1974  145.5096  162.2742 N.ar    1  UNL1       -0.0594
@<TRIPOS>BOND
     1    10    11    1
     2    11    12   ar
     3    12    13   ar
     4    13    14   ar
     5    14     4    1
     6     4     5    1
     7     5     6    1
     8     6     7    1
     9     1     7    1
    10     1     2    1
    11     2     3    1
    12     3    17    1
    13    17    18    1
    14    18    19    1
    15    19    20    1
    16    20    21   ar
    17    21    22   ar
    18    22    23   ar
    19    23    26    1
    20    26    27   ar
    21    27    28   ar
    22    28    29   ar
    23    29    30   ar
    24    23    24   ar
    25    24    25   ar
    26     7     8    1
    27     8     9    1
    28    14    15   ar
    29    15    16   ar
    30    16    11   ar
    31     9     4    1
    32     3     1    1
    33    25    20   ar
    34    30    26   ar
@<TRIPOS>MOLECULE
*****
 30 34 0 0 0
SMALL
GASTEIGER

@<TRIPOS>ATOM
      1 C         138.6796  138.9621  166.2263 C.3     1  UNL1        0.0002
      2 C         137.7016  138.6115  167.3081 C.3     1  UNL1        0.0001
      3 C         138.8280  139.5599  167.5939 C.3     1  UNL1        0.0037
      4 N         140.1167  138.5340  161.9835 N.pl3   1  UNL1       -0.2782
      5 C         140.4602  137.4868  163.0009 C.3     1  UNL1        0.0936
      6 C         139.9812  137.6295  164.4152 C.3     1  UNL1        0.0216
      7 C         139.1586  138.8194  164.8120 C.3     1  UNL1        0.0034
      8 C         138.8151  139.8666  163.7945 C.3     1  UNL1        0.0216
      9 C         139.2942  139.7239  162.3803 C.3     1  UNL1        0.0936
     10 CL        142.0327  137.9631  156.3264 Cl      1  UNL1       -0.0790
     11 C         141.5537  138.1058  157.7406 C.ar    1  UNL1        0.0960
     12 C         142.5195  137.9552  158.8784 C.ar    1  UNL1        0.1147
     13 N         142.0405  138.0980  160.2927 N.ar    1  UNL1       -0.2112
     14 C         140.5957  138.3913  160.5692 C.ar    1  UNL1        0.2202
     15 N         139.6299  138.5419  159.4314 N.ar    1  UNL1       -0.2112
     16 C         140.1089  138.3991  158.0171 C.ar    1  UNL1        0.1147
     17 C         139.5640  140.4526  168.5486 C.3     1  UNL1        0.0474
     18 C         140.6289  139.8833  169.4385 C.3     1  UNL1        0.2071
     19 O         142.0240  139.7030  168.9179 O.3     1  UNL1       -0.4602
     20 C         142.4601  140.4230  167.6763 C.ar    1  UNL1        0.2250
     21 C         142.4137  139.7254  166.3493 C.ar    1  UNL1        0.0593
     22 C         142.8498  140.4453  165.1078 C.ar    1  UNL1        0.0256
     23 C         143.3323  141.8630  165.1933 C.ar    1  UNL1        0.1038
     24 C         143.3788  142.5607  166.5203 C.ar    1  UNL1        0.1212
     25 N         142.9427  141.8407  167.7619 N.ar    1  UNL1       -0.2086
     26 N         143.7685  142.5830  163.9517 N.ar    1  UNL1       -0.2073
     27 C         144.2210  141.9417  162.6735 C.ar    1  UNL1        0.1246
     28 C         144.5608  143.0331  161.7023 C.ar    1  UNL1        0.1445
     29 N         144.3183  144.3490  162.3803 N.ar    1  UNL1       -0.1268
     30 N         143.8286  144.0707  163.7705 N.ar    1  UNL1       -0.0594
@<TRIPOS>BOND
     1    10    11    1
     2    11    12   ar
     3    12    13   ar
     4    13    14   ar
     5    14     4    1
     6     4     5    1
     7     5     6    1
     8     6     7    1
     9     1     7    1
    10     1     2    1
    11     2     3    1
    12     3    17    1
    13    17    18    1
    14    18    19    1
    15    19    20    1
    16    20    21   ar
    17    21    22   ar
    18    22    23   ar
    19    23    26    1
    20    26    27   ar
    21    27    28   ar
    22    28    29   ar
    23    29    30   ar
    24    23    24   ar
    25    24    25   ar
    26     7     8    1
    27     8     9    1
    28    14    15   ar
    29    15    16   ar
    30    16    11   ar
    31     9     4    1
    32     3     1    1
    33    25    20   ar
    34    30    26   ar
@<TRIPOS>MOLECULE
*****
 30 34 0 0 0
SMALL
GASTEIGER

@<TRIPOS>ATOM
      1 C         139.2475  140.1467  168.7067 C.3     1  UNL1        0.0002
      2 C         138.5179  140.1919  170.0165 C.3     1  UNL1        0.0001
      3 C         140.0150  140.2799  169.9885 C.3     1  UNL1        0.0037
      4 N         139.1817  139.8378  164.2178 N.pl3   1  UNL1       -0.2782
      5 C         139.6878  141.0869  164.8763 C.3     1  UNL1        0.0936
      6 C         139.7097  141.1899  166.3726 C.3     1  UNL1        0.0216
      7 C         139.2255  140.0438  167.2104 C.3     1  UNL1        0.0034
      8 C         138.7194  138.7947  166.5520 C.3     1  UNL1        0.0216
      9 C         138.6975  138.6917  165.0557 C.3     1  UNL1        0.0936
     10 CL        139.0939  139.4259  158.2326 Cl      1  UNL1       -0.0790
     11 C         139.1159  139.5289  159.7289 C.ar    1  UNL1        0.0960
     12 C         138.8999  140.8566  160.3926 C.ar    1  UNL1        0.1147
     13 N         138.9219  140.9596  161.8889 N.ar    1  UNL1       -0.2112
     14 C         139.1597  139.7348  162.7215 C.ar    1  UNL1        0.2202
     15 N         139.3757  138.4071  162.0579 N.ar    1  UNL1       -0.2112
     16 C         139.3537  138.3042  160.5616 C.ar    1  UNL1        0.1147
     17 C         141.3225  140.4077  170.7124 C.3     1  UNL1        0.0474
     18 C         142.5597  139.7792  170.1428 C.3     1  UNL1        0.2071
     19 O         142.5308  139.1769  168.7693 O.3     1  UNL1       -0.4602
     20 C         142.8512  140.0227  167.5726 C.ar    1  UNL1        0.2250
     21 C         143.0430  139.3810  166.2304 C.ar    1  UNL1        0.0593
     22 C         143.3635  140.2266  165.0337 C.ar    1  UNL1        0.0256
     23 C         143.4921  141.7140  165.1792 C.ar    1  UNL1        0.1038
     24 C         143.3003  142.3557  166.5214 C.ar    1  UNL1        0.1212
     25 N         142.9799  141.5100  167.7181 N.ar    1  UNL1       -0.2086
     26 N         143.8126  142.5597  163.9825 N.ar    1  UNL1       -0.2073
     27 C         144.2717  142.0578  162.6456 C.ar    1  UNL1        0.1246
     28 C         144.4730  143.2438  161.7494 C.ar    1  UNL1        0.1445
     29 N         144.1383  144.4785  162.5325 N.ar    1  UNL1       -0.1268
     30 N         143.7301  144.0557  163.9126 N.ar    1  UNL1       -0.0594
@<TRIPOS>BOND
     1    10    11    1
     2    11    12   ar
     3    12    13   ar
     4    13    14   ar
     5    14     4    1
     6     4     5    1
     7     5     6    1
     8     6     7    1
     9     1     7    1
    10     1     2    1
    11     2     3    1
    12     3    17    1
    13    17    18    1
    14    18    19    1
    15    19    20    1
    16    20    21   ar
    17    21    22   ar
    18    22    23   ar
    19    23    26    1
    20    26    27   ar
    21    27    28   ar
    22    28    29   ar
    23    29    30   ar
    24    23    24   ar
    25    24    25   ar
    26     7     8    1
    27     8     9    1
    28    14    15   ar
    29    15    16   ar
    30    16    11   ar
    31     9     4    1
    32     3     1    1
    33    25    20   ar
    34    30    26   ar
@<TRIPOS>MOLECULE
*****
 30 34 0 0 0
SMALL
GASTEIGER

@<TRIPOS>ATOM
      1 C         138.2331  139.3393  165.9946 C.3     1  UNL1        0.0002
      2 C         137.5992  138.5696  167.1152 C.3     1  UNL1        0.0001
      3 C         138.8575  139.3490  167.3584 C.3     1  UNL1        0.0037
      4 N         138.2497  140.6555  161.6915 N.pl3   1  UNL1       -0.2782
      5 C         138.6600  139.2580  162.0499 C.3     1  UNL1        0.0936
      6 C         138.6545  138.8193  163.4843 C.3     1  UNL1        0.0216
      7 C         138.2387  139.7780  164.5602 C.3     1  UNL1        0.0034
      8 C         137.8283  141.1755  164.2018 C.3     1  UNL1        0.0216
      9 C         137.8338  141.6143  162.7674 C.3     1  UNL1        0.0936
     10 CL        138.2718  142.4105  155.9539 Cl      1  UNL1       -0.0790
     11 C         138.2662  141.9718  157.3883 C.ar    1  UNL1        0.0960
     12 C         137.7750  140.6019  157.7517 C.ar    1  UNL1        0.1147
     13 N         137.7695  140.1632  159.1861 N.ar    1  UNL1       -0.2112
     14 C         138.2552  141.0943  160.2571 C.ar    1  UNL1        0.2202
     15 N         138.7465  142.4641  159.8937 N.ar    1  UNL1       -0.2112
     16 C         138.7520  142.9029  158.4593 C.ar    1  UNL1        0.1147
     17 C         139.9445  139.8046  168.2862 C.3     1  UNL1        0.0474
     18 C         139.7328  141.0084  169.1558 C.3     1  UNL1        0.2071
     19 O         140.4858  142.2757  168.8785 O.3     1  UNL1       -0.4602
     20 C         141.1109  142.4976  167.5330 C.ar    1  UNL1        0.2250
     21 C         140.2651  142.9446  166.3777 C.ar    1  UNL1        0.0593
     22 C         140.8900  143.1665  165.0323 C.ar    1  UNL1        0.0256
     23 C         142.3608  142.9415  164.8422 C.ar    1  UNL1        0.1038
     24 C         143.2066  142.4945  165.9976 C.ar    1  UNL1        0.1212
     25 N         142.5816  142.2726  167.3430 N.ar    1  UNL1       -0.2086
     26 N         142.9858  143.1634  163.4968 N.ar    1  UNL1       -0.2073
     27 C         144.2834  142.5809  163.0205 C.ar    1  UNL1        0.1246
     28 C         144.5225  143.0643  161.6208 C.ar    1  UNL1        0.1445
     29 N         143.3727  143.9456  161.2321 N.ar    1  UNL1       -0.1268
     30 N         142.4230  144.0068  162.3915 N.ar    1  UNL1       -0.0594
@<TRIPOS>BOND
     1    10    11    1
     2    11    12   ar
     3    12    13   ar
     4    13    14   ar
     5    14     4    1
     6     4     5    1
     7     5     6    1
     8     6     7    1
     9     1     7    1
    10     1     2    1
    11     2     3    1
    12     3    17    1
    13    17    18    1
    14    18    19    1
    15    19    20    1
    16    20    21   ar
    17    21    22   ar
    18    22    23   ar
    19    23    26    1
    20    26    27   ar
    21    27    28   ar
    22    28    29   ar
    23    29    30   ar
    24    23    24   ar
    25    24    25   ar
    26     7     8    1
    27     8     9    1
    28    14    15   ar
    29    15    16   ar
    30    16    11   ar
    31     9     4    1
    32     3     1    1
    33    25    20   ar
    34    30    26   ar
@<TRIPOS>MOLECULE
*****
 30 34 0 0 0
SMALL
GASTEIGER

@<TRIPOS>ATOM
      1 C         141.7186  138.9047  164.0256 C.3     1  UNL1        0.0002
      2 C         141.3793  137.5477  164.5674 C.3     1  UNL1        0.0001
      3 C         142.3328  138.4353  165.3111 C.3     1  UNL1        0.0037
      4 N         141.2425  142.0679  160.8606 N.pl3   1  UNL1       -0.2782
      5 C         140.0302  141.4330  161.4748 C.3     1  UNL1        0.0936
      6 C         140.1889  140.3786  162.5298 C.3     1  UNL1        0.0216
      7 C         141.5599  139.9591  162.9706 C.3     1  UNL1        0.0034
      8 C         142.7722  140.5939  162.3564 C.3     1  UNL1        0.0216
      9 C         142.6135  141.6483  161.3014 C.3     1  UNL1        0.0936
     10 CL        140.6077  146.2855  156.6405 Cl      1  UNL1       -0.0790
     11 C         140.7664  145.2311  157.6956 C.ar    1  UNL1        0.0960
     12 C         139.6657  144.2414  157.9384 C.ar    1  UNL1        0.1147
     13 N         139.8244  143.1870  158.9934 N.ar    1  UNL1       -0.2112
     14 C         141.0838  143.1223  159.8056 C.ar    1  UNL1        0.2202
     15 N         142.1845  144.1119  159.5628 N.ar    1  UNL1       -0.2112
     16 C         142.0258  145.1663  158.5077 C.ar    1  UNL1        0.1147
     17 C         143.2378  138.6768  166.4826 C.3     1  UNL1        0.0474
     18 C         142.7063  139.3455  167.7157 C.3     1  UNL1        0.2071
     19 O         142.7655  140.8388  167.8438 O.3     1  UNL1       -0.4602
     20 C         142.1501  141.7072  166.7868 C.ar    1  UNL1        0.2250
     21 C         143.0266  142.4488  165.8214 C.ar    1  UNL1        0.0593
     22 C         142.4113  143.3172  164.7645 C.ar    1  UNL1        0.0256
     23 C         140.9195  143.4441  164.6729 C.ar    1  UNL1        0.1038
     24 C         140.0430  142.7025  165.6383 C.ar    1  UNL1        0.1212
     25 N         140.6584  141.8341  166.6953 N.ar    1  UNL1       -0.2086
     26 N         140.3041  144.3125  163.6159 N.ar    1  UNL1       -0.2073
     27 C         141.0216  145.3385  162.7899 C.ar    1  UNL1        0.1246
     28 C         140.0241  145.9675  161.8629 C.ar    1  UNL1        0.1445
     29 N         138.6901  145.3302  162.1161 N.ar    1  UNL1       -0.1268
     30 N         138.8631  144.3074  163.1995 N.ar    1  UNL1       -0.0594
@<TRIPOS>BOND
     1    10    11    1
     2    11    12   ar
     3    12    13   ar
     4    13    14   ar
     5    14     4    1
     6     4     5    1
     7     5     6    1
     8     6     7    1
     9     1     7    1
    10     1     2    1
    11     2     3    1
    12     3    17    1
    13    17    18    1
    14    18    19    1
    15    19    20    1
    16    20    21   ar
    17    21    22   ar
    18    22    23   ar
    19    23    26    1
    20    26    27   ar
    21    27    28   ar
    22    28    29   ar
    23    29    30   ar
    24    23    24   ar
    25    24    25   ar
    26     7     8    1
    27     8     9    1
    28    14    15   ar
    29    15    16   ar
    30    16    11   ar
    31     9     4    1
    32     3     1    1
    33    25    20   ar
    34    30    26   ar
@<TRIPOS>MOLECULE
*****
 30 34 0 0 0
SMALL
GASTEIGER

@<TRIPOS>ATOM
      1 C         139.8025  138.0064  163.0668 C.3     1  UNL1        0.0002
      2 C         140.8486  137.1889  163.7649 C.3     1  UNL1        0.0001
      3 C         139.5693  137.5299  164.4699 C.3     1  UNL1        0.0037
      4 N         138.3945  140.2476  159.4276 N.pl3   1  UNL1       -0.2782
      5 C         139.7500  139.6054  159.4350 C.3     1  UNL1        0.0936
      6 C         140.2193  138.8583  160.6481 C.3     1  UNL1        0.0216
      7 C         139.3332  138.7535  161.8538 C.3     1  UNL1        0.0034
      8 C         137.9777  139.3957  161.8463 C.3     1  UNL1        0.0216
      9 C         137.5083  140.1428  160.6332 C.3     1  UNL1        0.0936
     10 CL        136.5172  143.2360  154.5752 Cl      1  UNL1       -0.0790
     11 C         136.9865  142.4889  155.7883 C.ar    1  UNL1        0.0960
     12 C         138.1131  143.0337  156.6154 C.ar    1  UNL1        0.1147
     13 N         138.5824  142.2866  157.8284 N.ar    1  UNL1       -0.2112
     14 C         137.9252  140.9947  158.2145 C.ar    1  UNL1        0.2202
     15 N         136.7986  140.4499  157.3874 N.ar    1  UNL1       -0.2112
     16 C         136.3293  141.1970  156.1743 C.ar    1  UNL1        0.1147
     17 C         138.6961  137.4518  165.6870 C.3     1  UNL1        0.0474
     18 C         138.0984  138.7013  166.2628 C.3     1  UNL1        0.2071
     19 O         138.9650  139.8990  166.5170 O.3     1  UNL1       -0.4602
     20 C         139.2159  140.8898  165.4191 C.ar    1  UNL1        0.2250
     21 C         140.6111  141.1149  164.9164 C.ar    1  UNL1        0.0593
     22 C         140.8621  142.1056  163.8186 C.ar    1  UNL1        0.0256
     23 C         139.7178  142.8714  163.2234 C.ar    1  UNL1        0.1038
     24 C         138.3226  142.6463  163.7261 C.ar    1  UNL1        0.1212
     25 N         138.0716  141.6555  164.8239 N.ar    1  UNL1       -0.2086
     26 N         139.9688  143.8622  162.1255 N.ar    1  UNL1       -0.2073
     27 C         141.1563  143.8811  161.2093 C.ar    1  UNL1        0.1246
     28 C         140.9976  145.0387  160.2686 C.ar    1  UNL1        0.1445
     29 N         139.7121  145.7352  160.6035 N.ar    1  UNL1       -0.1268
     30 N         139.0762  145.0081  161.7511 N.ar    1  UNL1       -0.0594
@<TRIPOS>BOND
     1    10    11    1
     2    11    12   ar
     3    12    13   ar
     4    13    14   ar
     5    14     4    1
     6     4     5    1
     7     5     6    1
     8     6     7    1
     9     1     7    1
    10     1     2    1
    11     2     3    1
    12     3    17    1
    13    17    18    1
    14    18    19    1
    15    19    20    1
    16    20    21   ar
    17    21    22   ar
    18    22    23   ar
    19    23    26    1
    20    26    27   ar
    21    27    28   ar
    22    28    29   ar
    23    29    30   ar
    24    23    24   ar
    25    24    25   ar
    26     7     8    1
    27     8     9    1
    28    14    15   ar
    29    15    16   ar
    30    16    11   ar
    31     9     4    1
    32     3     1    1
    33    25    20   ar
    34    30    26   ar
@<TRIPOS>MOLECULE
*****
 30 34 0 0 0
SMALL
GASTEIGER

@<TRIPOS>ATOM
      1 C         140.6232  142.5616  166.0804 C.3     1  UNL1        0.0002
      2 C         140.6629  142.8384  167.5541 C.3     1  UNL1        0.0001
      3 C         140.3718  141.4528  167.0588 C.3     1  UNL1        0.0037
      4 N         140.9897  144.0030  161.8333 N.pl3   1  UNL1       -0.2782
      5 C         141.8884  142.9120  162.3353 C.3     1  UNL1        0.0936
      6 C         141.7662  142.4316  163.7510 C.3     1  UNL1        0.0216
      7 C         140.7453  143.0421  164.6647 C.3     1  UNL1        0.0034
      8 C         139.8466  144.1331  164.1628 C.3     1  UNL1        0.0216
      9 C         139.9688  144.6135  162.7471 C.3     1  UNL1        0.0936
     10 CL        141.4785  145.9248  156.1705 Cl      1  UNL1       -0.0790
     11 C         141.3563  145.4444  157.5862 C.ar    1  UNL1        0.0960
     12 C         142.4455  144.6095  158.1915 C.ar    1  UNL1        0.1147
     13 N         142.3234  144.1291  159.6072 N.ar    1  UNL1       -0.2112
     14 C         141.1119  144.4835  160.4176 C.ar    1  UNL1        0.2202
     15 N         140.0226  145.3183  159.8123 N.ar    1  UNL1       -0.2112
     16 C         140.1448  145.7987  158.3965 C.ar    1  UNL1        0.1147
     17 C         140.0585  140.0126  167.3376 C.3     1  UNL1        0.0474
     18 C         138.7054  139.4603  166.9997 C.3     1  UNL1        0.2071
     19 O         138.5761  138.3564  165.9925 O.3     1  UNL1       -0.4602
     20 C         138.6114  138.6710  164.5262 C.ar    1  UNL1        0.2250
     21 C         138.2529  140.0459  164.0453 C.ar    1  UNL1        0.0593
     22 C         138.2881  140.3605  162.5792 C.ar    1  UNL1        0.0256
     23 C         138.6818  139.3003  161.5939 C.ar    1  UNL1        0.1038
     24 C         139.0403  137.9254  162.0747 C.ar    1  UNL1        0.1212
     25 N         139.0051  137.6108  163.5409 N.ar    1  UNL1       -0.2086
     26 N         138.7170  139.6149  160.1276 N.ar    1  UNL1       -0.2073
     27 C         139.9310  139.5799  159.2472 C.ar    1  UNL1        0.1246
     28 C         139.5086  139.9631  157.8599 C.ar    1  UNL1        0.1445
     29 N         138.0337  140.2350  157.8828 N.ar    1  UNL1       -0.1268
     30 N         137.5445  140.0198  159.2844 N.ar    1  UNL1       -0.0594
@<TRIPOS>BOND
     1    10    11    1
     2    11    12   ar
     3    12    13   ar
     4    13    14   ar
     5    14     4    1
     6     4     5    1
     7     5     6    1
     8     6     7    1
     9     1     7    1
    10     1     2    1
    11     2     3    1
    12     3    17    1
    13    17    18    1
    14    18    19    1
    15    19    20    1
    16    20    21   ar
    17    21    22   ar
    18    22    23   ar
    19    23    26    1
    20    26    27   ar
    21    27    28   ar
    22    28    29   ar
    23    29    30   ar
    24    23    24   ar
    25    24    25   ar
    26     7     8    1
    27     8     9    1
    28    14    15   ar
    29    15    16   ar
    30    16    11   ar
    31     9     4    1
    32     3     1    1
    33    25    20   ar
    34    30    26   ar
