@<TRIPOS>MOLECULE
*****
 33 38 0 0 0
SMALL
GASTEIGER

@<TRIPOS>ATOM
      1 C         142.2692  140.5261  163.0182 C.ar    1  UNL1        0.1170
      2 N         141.8469  140.3610  164.4480 N.ar    1  UNL1       -0.2264
      3 C         140.9929  141.4058  165.1032 C.ar    1  UNL1        0.1602
      4 N         140.5612  142.6155  164.3286 N.ar    1  UNL1       -0.2091
      5 C         140.9834  142.7806  162.8988 C.ar    1  UNL1        0.1690
      6 C         141.8374  141.7359  162.2436 C.ar    1  UNL1        0.1850
      7 O         142.2597  141.9009  160.8137 O.3     1  UNL1       -0.4695
      8 C         141.8279  143.1107  160.0391 C.3     1  UNL1        0.2277
      9 C         140.9739  144.1554  160.6943 C.3     1  UNL1        0.1477
     10 C         140.5422  145.3652  159.9196 C.3     1  UNL1        0.1657
     11 O         139.6883  146.4098  160.5748 O.3     1  UNL1       -0.3501
     12 C         139.2660  146.2448  162.0047 C.3     1  UNL1        0.1636
     13 C         139.6977  145.0351  162.7793 C.3     1  UNL1        0.1244
     14 N         140.5517  143.9904  162.1241 N.pl3   1  UNL1       -0.2840
     15 C         140.5707  141.2407  166.5331 C.2     1  UNL1        0.0230
     16 C         141.2242  142.0587  167.6073 C.2     1  UNL1       -0.0005
     17 C         140.8019  141.8937  169.0372 C.2     1  UNL1        0.0010
     18 C         139.7262  140.9106  169.3928 C.2     1  UNL1        0.0153
     19 C         139.0727  140.0926  168.3186 C.2     1  UNL1        0.0669
     20 N         137.9928  139.0527  168.3659 N.2     1  UNL1       -0.2478
     21 C         137.7476  138.5750  166.9653 C.2     1  UNL1        0.0946
     22 C         138.6760  139.3198  166.0524 C.2     1  UNL1        0.0046
     23 C         139.4950  140.2577  166.8888 C.3     1  UNL1        0.0888
     24 C         143.1231  139.4814  162.3630 C.3     1  UNL1        0.1533
     25 C         141.8007  139.1745  161.7249 C.3     1  UNL1        0.0599
     26 C         141.6886  138.0556  160.7323 C.3     1  UNL1        0.1443
     27 O         142.8989  137.2434  160.3777 O.3     1  UNL1       -0.3536
     28 C         144.2212  137.5503  161.0158 C.3     1  UNL1        0.1443
     29 C         144.3334  138.6692  162.0084 C.3     1  UNL1        0.0599
     30 C         145.1747  140.8207  164.0943 C.3     1  UNL1        0.1764
     31 S         144.1489  140.1510  163.2286 S.O2    1  UNL1       -0.0062
     32 O         144.4321  141.0424  162.6620 O.2     1  UNL1       -0.1727
     33 O         144.0044  139.0579  164.2456 O.2     1  UNL1       -0.1727
@<TRIPOS>BOND
     1    30    31    1
     2    31    32    2
     3    31    33    2
     4    31    24    1
     5    24     1    1
     6     1     2   ar
     7     2     3   ar
     8     3    15    1
     9    15    16    2
    10    16    17    1
    11    17    18    2
    12    18    19    1
    13    19    20    2
    14    20    21    1
    15    21    22    2
    16    22    23    1
    17     3     4   ar
    18     4     5   ar
    19     5     6   ar
    20     6     7    1
    21     7     8    1
    22     9     8    1
    23     9    10    1
    24    10    11    1
    25    11    12    1
    26    12    13    1
    27    13    14    1
    28    24    25    1
    29    25    26    1
    30    26    27    1
    31    27    28    1
    32    28    29    1
    33    29    24    1
    34     6     1   ar
    35    14     9    1
    36    23    15    1
    37    14     5    1
    38    23    19    1
@<TRIPOS>MOLECULE
*****
 33 38 0 0 0
SMALL
GASTEIGER

@<TRIPOS>ATOM
      1 C         141.2978  140.1344  162.6040 C.ar    1  UNL1        0.1170
      2 N         141.0255  140.0155  164.0743 N.ar    1  UNL1       -0.2264
      3 C         140.4686  141.1849  164.8309 C.ar    1  UNL1        0.1602
      4 N         140.1840  142.4732  164.1173 N.ar    1  UNL1       -0.2091
      5 C         140.4563  142.5921  162.6470 C.ar    1  UNL1        0.1690
      6 C         141.0132  141.4228  161.8904 C.ar    1  UNL1        0.1850
      7 O         141.2855  141.5418  160.4201 O.3     1  UNL1       -0.4695
      8 C         141.0009  142.8301  159.7065 C.3     1  UNL1        0.2277
      9 C         140.4440  143.9995  160.4631 C.3     1  UNL1        0.1477
     10 C         140.1595  145.2878  159.7495 C.3     1  UNL1        0.1657
     11 O         139.6026  146.4571  160.5062 O.3     1  UNL1       -0.3501
     12 C         139.3304  146.3381  161.9765 C.3     1  UNL1        0.1636
     13 C         139.6149  145.0498  162.6901 C.3     1  UNL1        0.1244
     14 N         140.1718  143.8805  161.9334 N.pl3   1  UNL1       -0.2840
     15 C         140.1963  141.0659  166.3012 C.2     1  UNL1        0.0230
     16 C         140.9371  141.9349  167.2739 C.2     1  UNL1       -0.0005
     17 C         140.6649  141.8160  168.7441 C.2     1  UNL1        0.0010
     18 C         139.6517  140.8280  169.2417 C.2     1  UNL1        0.0153
     19 C         138.9110  139.9590  168.2691 C.2     1  UNL1        0.0669
     20 N         137.8638  138.9026  168.4625 N.2     1  UNL1       -0.2478
     21 C         137.4889  138.3687  167.1119 C.2     1  UNL1        0.0946
     22 C         138.3043  139.0951  166.0836 C.2     1  UNL1        0.0046
     23 C         139.1833  140.0780  166.7988 C.3     1  UNL1        0.0888
     24 C         141.8546  138.9651  161.8473 C.3     1  UNL1        0.1533
     25 C         143.0698  139.8429  161.9015 C.3     1  UNL1        0.0599
     26 C         144.3526  139.3875  161.2715 C.3     1  UNL1        0.1443
     27 O         144.4203  138.0543  160.5872 O.3     1  UNL1       -0.3536
     28 C         143.2051  137.1766  160.5331 C.3     1  UNL1        0.1443
     29 C         141.9223  137.6320  161.1631 C.3     1  UNL1        0.0599
     30 C         139.0374  138.0219  162.2646 C.3     1  UNL1        0.1764
     31 S         140.4461  138.4935  162.0559 S.O2    1  UNL1       -0.0062
     32 O         139.8717  139.0310  161.2963 O.2     1  UNL1       -0.1727
     33 O         140.9066  137.6160  163.1820 O.2     1  UNL1       -0.1727
@<TRIPOS>BOND
     1    30    31    1
     2    31    32    2
     3    31    33    2
     4    31    24    1
     5    24     1    1
     6     1     2   ar
     7     2     3   ar
     8     3    15    1
     9    15    16    2
    10    16    17    1
    11    17    18    2
    12    18    19    1
    13    19    20    2
    14    20    21    1
    15    21    22    2
    16    22    23    1
    17     3     4   ar
    18     4     5   ar
    19     5     6   ar
    20     6     7    1
    21     7     8    1
    22     9     8    1
    23     9    10    1
    24    10    11    1
    25    11    12    1
    26    12    13    1
    27    13    14    1
    28    24    25    1
    29    25    26    1
    30    26    27    1
    31    27    28    1
    32    28    29    1
    33    29    24    1
    34     6     1   ar
    35    14     9    1
    36    23    15    1
    37    14     5    1
    38    23    19    1
@<TRIPOS>MOLECULE
*****
 33 38 0 0 0
SMALL
GASTEIGER

@<TRIPOS>ATOM
      1 C         142.2836  140.3654  163.1272 C.ar    1  UNL1        0.1170
      2 N         141.9284  140.1498  164.5685 N.ar    1  UNL1       -0.2264
      3 C         141.0885  141.1596  165.2931 C.ar    1  UNL1        0.1602
      4 N         140.6039  142.3849  164.5764 N.ar    1  UNL1       -0.2091
      5 C         140.9591  142.6005  163.1351 C.ar    1  UNL1        0.1690
      6 C         141.7990  141.5909  162.4105 C.ar    1  UNL1        0.1850
      7 O         142.1542  141.8065  160.9692 O.3     1  UNL1       -0.4695
      8 C         141.6696  143.0318  160.2526 C.3     1  UNL1        0.2277
      9 C         140.8297  144.0416  160.9772 C.3     1  UNL1        0.1477
     10 C         140.3450  145.2669  160.2605 C.3     1  UNL1        0.1657
     11 O         139.5052  146.2766  160.9851 O.3     1  UNL1       -0.3501
     12 C         139.1500  146.0610  162.4264 C.3     1  UNL1        0.1636
     13 C         139.6346  144.8357  163.1431 C.3     1  UNL1        0.1244
     14 N         140.4744  143.8260  162.4185 N.pl3   1  UNL1       -0.2840
     15 C         140.7333  140.9440  166.7344 C.2     1  UNL1        0.0230
     16 C         139.4617  140.2348  167.0955 C.2     1  UNL1       -0.0005
     17 C         139.1065  140.0192  168.5368 C.2     1  UNL1        0.0010
     18 C         140.0229  140.5127  169.6170 C.2     1  UNL1        0.0153
     19 C         141.2943  141.2218  169.2559 C.2     1  UNL1        0.0669
     20 N         142.3859  141.8156  170.0961 N.2     1  UNL1       -0.2478
     21 C         143.4157  142.3982  169.1742 C.2     1  UNL1        0.0946
     22 C         142.9606  142.1645  167.7641 C.2     1  UNL1        0.0046
     23 C         141.6496  141.4375  167.8146 C.3     1  UNL1        0.0888
     24 C         143.1235  139.3557  162.4026 C.3     1  UNL1        0.1533
     25 C         141.7812  139.0559  161.8038 C.3     1  UNL1        0.0599
     26 C         141.6437  137.9723  160.7758 C.3     1  UNL1        0.1443
     27 O         142.8485  137.1884  160.3465 O.3     1  UNL1       -0.3536
     28 C         144.1907  137.4883  160.9453 C.3     1  UNL1        0.1443
     29 C         144.3282  138.5719  161.9733 C.3     1  UNL1        0.0599
     30 C         145.2246  140.6568  164.1034 C.3     1  UNL1        0.1764
     31 S         144.1740  140.0063  163.2529 S.O2    1  UNL1       -0.0062
     32 O         144.4504  140.9034  162.6921 O.2     1  UNL1       -0.1727
     33 O         144.0454  138.9002  164.2580 O.2     1  UNL1       -0.1727
@<TRIPOS>BOND
     1    30    31    1
     2    31    32    2
     3    31    33    2
     4    31    24    1
     5    24     1    1
     6     1     2   ar
     7     2     3   ar
     8     3    15    1
     9    15    16    2
    10    16    17    1
    11    17    18    2
    12    18    19    1
    13    19    20    2
    14    20    21    1
    15    21    22    2
    16    22    23    1
    17     3     4   ar
    18     4     5   ar
    19     5     6   ar
    20     6     7    1
    21     7     8    1
    22     9     8    1
    23     9    10    1
    24    10    11    1
    25    11    12    1
    26    12    13    1
    27    13    14    1
    28    24    25    1
    29    25    26    1
    30    26    27    1
    31    27    28    1
    32    28    29    1
    33    29    24    1
    34     6     1   ar
    35    14     9    1
    36    23    15    1
    37    14     5    1
    38    23    19    1
@<TRIPOS>MOLECULE
*****
 33 38 0 0 0
SMALL
GASTEIGER

@<TRIPOS>ATOM
      1 C         141.3926  142.7294  163.0190 C.ar    1  UNL1        0.1170
      2 N         141.5465  142.3009  164.4483 N.ar    1  UNL1       -0.2264
      3 C         142.0146  140.9123  164.7688 C.ar    1  UNL1        0.1602
      4 N         142.3288  139.9522  163.6600 N.ar    1  UNL1       -0.2091
      5 C         142.1750  140.3806  162.2308 C.ar    1  UNL1        0.1690
      6 C         141.7069  141.7691  161.9102 C.ar    1  UNL1        0.1850
      7 O         141.5530  142.1976  160.4810 O.3     1  UNL1       -0.4695
      8 C         141.8672  141.2374  159.3722 C.3     1  UNL1        0.2277
      9 C         142.3354  139.8488  159.6927 C.3     1  UNL1        0.1477
     10 C         142.6496  138.8887  158.5840 C.3     1  UNL1        0.1657
     11 O         143.1177  137.5001  158.9045 O.3     1  UNL1       -0.3501
     12 C         143.2715  137.0717  160.3338 C.3     1  UNL1        0.1636
     13 C         142.9573  138.0318  161.4425 C.3     1  UNL1        0.1244
     14 N         142.4892  139.4204  161.1220 N.pl3   1  UNL1       -0.2840
     15 C         142.1684  140.4839  166.1980 C.2     1  UNL1        0.0230
     16 C         142.9127  139.2238  166.5273 C.2     1  UNL1       -0.0005
     17 C         143.0666  138.7954  167.9566 C.2     1  UNL1        0.0010
     18 C         142.4762  139.6271  169.0565 C.2     1  UNL1        0.0153
     19 C         141.7320  140.8871  168.7272 C.2     1  UNL1        0.0669
     20 N         141.0467  141.9032  169.5920 N.2     1  UNL1       -0.2478
     21 C         140.4693  142.9596  168.6973 C.2     1  UNL1        0.0946
     22 C         140.7977  142.5964  167.2795 C.2     1  UNL1        0.0046
     23 C         141.5781  141.3155  167.2980 C.3     1  UNL1        0.0888
     24 C         140.9245  144.1179  162.6985 C.3     1  UNL1        0.1533
     25 C         139.6157  143.3861  162.6584 C.3     1  UNL1        0.0599
     26 C         138.3499  144.1295  162.3504 C.3     1  UNL1        0.1443
     27 O         138.3928  145.6049  162.0825 O.3     1  UNL1       -0.3536
     28 C         139.7016  146.3366  162.1226 C.3     1  UNL1        0.1443
     29 C         140.9674  145.5932  162.4306 C.3     1  UNL1        0.0599
     30 C         143.8672  144.6170  163.0012 C.3     1  UNL1        0.1764
     31 S         142.3958  144.3674  162.8499 S.O2    1  UNL1       -0.0062
     32 O         142.5753  144.2495  163.9221 O.2     1  UNL1       -0.1727
     33 O         142.5091  144.5964  161.3718 O.2     1  UNL1       -0.1727
@<TRIPOS>BOND
     1    30    31    1
     2    31    32    2
     3    31    33    2
     4    31    24    1
     5    24     1    1
     6     1     2   ar
     7     2     3   ar
     8     3    15    1
     9    15    16    2
    10    16    17    1
    11    17    18    2
    12    18    19    1
    13    19    20    2
    14    20    21    1
    15    21    22    2
    16    22    23    1
    17     3     4   ar
    18     4     5   ar
    19     5     6   ar
    20     6     7    1
    21     7     8    1
    22     9     8    1
    23     9    10    1
    24    10    11    1
    25    11    12    1
    26    12    13    1
    27    13    14    1
    28    24    25    1
    29    25    26    1
    30    26    27    1
    31    27    28    1
    32    28    29    1
    33    29    24    1
    34     6     1   ar
    35    14     9    1
    36    23    15    1
    37    14     5    1
    38    23    19    1
@<TRIPOS>MOLECULE
*****
 33 38 0 0 0
SMALL
GASTEIGER

@<TRIPOS>ATOM
      1 C         139.4269  142.6441  160.7821 C.ar    1  UNL1        0.1170
      2 N         138.8378  143.2953  159.5660 N.ar    1  UNL1       -0.2264
      3 C         139.1036  142.7223  158.2054 C.ar    1  UNL1        0.1602
      4 N         139.9585  141.4983  158.0609 N.ar    1  UNL1       -0.2091
      5 C         140.5476  140.8472  159.2770 C.ar    1  UNL1        0.1690
      6 C         140.2819  141.4201  160.6376 C.ar    1  UNL1        0.1850
      7 O         140.8710  140.7689  161.8537 O.3     1  UNL1       -0.4695
      8 C         141.7259  139.5449  161.7093 C.3     1  UNL1        0.2277
      9 C         141.9917  138.9720  160.3487 C.3     1  UNL1        0.1477
     10 C         142.8466  137.7480  160.2042 C.3     1  UNL1        0.1657
     11 O         143.1124  137.1751  158.8437 O.3     1  UNL1       -0.3501
     12 C         142.5232  137.8262  157.6276 C.3     1  UNL1        0.1636
     13 C         141.6683  139.0502  157.7720 C.3     1  UNL1        0.1244
     14 N         141.4026  139.6231  159.1325 N.pl3   1  UNL1       -0.2840
     15 C         138.5144  143.3735  156.9893 C.2     1  UNL1        0.0230
     16 C         137.2414  142.8446  156.3978 C.2     1  UNL1       -0.0005
     17 C         136.6522  143.4958  155.1817 C.2     1  UNL1        0.0010
     18 C         137.3361  144.6757  154.5570 C.2     1  UNL1        0.0153
     19 C         138.6091  145.2045  155.1485 C.2     1  UNL1        0.0669
     20 N         139.5015  146.3439  154.7545 N.2     1  UNL1       -0.2478
     21 C         140.6423  146.3970  155.7271 C.2     1  UNL1        0.0946
     22 C         140.4548  145.2904  156.7222 C.2     1  UNL1        0.0046
     23 C         139.1982  144.5533  156.3646 C.3     1  UNL1        0.0888
     24 C         139.1612  143.2170  162.1426 C.3     1  UNL1        0.1533
     25 C         138.2199  142.0492  162.1634 C.3     1  UNL1        0.0599
     26 C         137.3719  141.7908  163.3733 C.3     1  UNL1        0.1443
     27 O         137.4651  142.7002  164.5627 O.3     1  UNL1       -0.3536
     28 C         138.4064  143.8680  164.5419 C.3     1  UNL1        0.1443
     29 C         139.2544  144.1264  163.3319 C.3     1  UNL1        0.0599
     30 C         141.2282  145.1546  161.1561 C.3     1  UNL1        0.1764
     31 S         140.1947  144.1858  161.6494 S.O2    1  UNL1       -0.0062
     32 O         141.1401  143.6506  161.7744 O.2     1  UNL1       -0.1727
     33 O         139.1159  145.1840  161.3496 O.2     1  UNL1       -0.1727
@<TRIPOS>BOND
     1    30    31    1
     2    31    32    2
     3    31    33    2
     4    31    24    1
     5    24     1    1
     6     1     2   ar
     7     2     3   ar
     8     3    15    1
     9    15    16    2
    10    16    17    1
    11    17    18    2
    12    18    19    1
    13    19    20    2
    14    20    21    1
    15    21    22    2
    16    22    23    1
    17     3     4   ar
    18     4     5   ar
    19     5     6   ar
    20     6     7    1
    21     7     8    1
    22     9     8    1
    23     9    10    1
    24    10    11    1
    25    11    12    1
    26    12    13    1
    27    13    14    1
    28    24    25    1
    29    25    26    1
    30    26    27    1
    31    27    28    1
    32    28    29    1
    33    29    24    1
    34     6     1   ar
    35    14     9    1
    36    23    15    1
    37    14     5    1
    38    23    19    1
@<TRIPOS>MOLECULE
*****
 33 38 0 0 0
SMALL
GASTEIGER

@<TRIPOS>ATOM
      1 C         143.0546  140.7081  162.2200 C.ar    1  UNL1        0.1170
      2 N         143.5072  140.1611  160.8986 N.ar    1  UNL1       -0.2264
      3 C         143.1523  140.8772  159.6292 C.ar    1  UNL1        0.1602
      4 N         142.3448  142.1402  159.6812 N.ar    1  UNL1       -0.2091
      5 C         141.8922  142.6872  161.0025 C.ar    1  UNL1        0.1690
      6 C         142.2470  141.9712  162.2719 C.ar    1  UNL1        0.1850
      7 O         141.7944  142.5182  163.5932 O.3     1  UNL1       -0.4695
      8 C         140.9870  143.7812  163.6452 C.3     1  UNL1        0.2277
      9 C         140.6320  144.4973  162.3757 C.3     1  UNL1        0.1477
     10 C         139.8246  145.7603  162.4277 C.3     1  UNL1        0.1657
     11 O         139.4697  146.4763  161.1583 O.3     1  UNL1       -0.3501
     12 C         139.9223  145.9293  159.8370 C.3     1  UNL1        0.1636
     13 C         140.7298  144.6663  159.7850 C.3     1  UNL1        0.1244
     14 N         141.0846  143.9503  161.0544 N.pl3   1  UNL1       -0.2840
     15 C         143.6049  140.3302  158.3079 C.2     1  UNL1        0.0230
     16 C         142.9481  139.1081  157.7374 C.2     1  UNL1       -0.0005
     17 C         143.4007  138.5611  156.4161 C.2     1  UNL1        0.0010
     18 C         144.5101  139.2362  155.6652 C.2     1  UNL1        0.0153
     19 C         145.1668  140.4581  156.2357 C.2     1  UNL1        0.0669
     20 N         146.2764  141.3307  155.7283 N.2     1  UNL1       -0.2478
     21 C         146.5095  142.4170  156.7361 C.2     1  UNL1        0.0946
     22 C         145.5440  142.2158  157.8663 C.2     1  UNL1        0.0046
     23 C         144.7142  141.0051  157.5570 C.3     1  UNL1        0.0888
     24 C         143.4094  139.9922  163.4893 C.3     1  UNL1        0.1533
     25 C         142.0952  139.3384  163.1803 C.3     1  UNL1        0.0599
     26 C         141.5495  138.2821  164.0948 C.3     1  UNL1        0.1443
     27 O         142.3181  137.8795  165.3185 O.3     1  UNL1       -0.3536
     28 C         143.6322  138.5332  165.6275 C.3     1  UNL1        0.1443
     29 C         144.1779  139.5895  164.7130 C.3     1  UNL1        0.0599
     30 C         145.7913  141.7970  163.2258 C.3     1  UNL1        0.1764
     31 S         144.6003  140.8945  163.3576 S.O2    1  UNL1       -0.0062
     32 O         145.0893  140.5552  162.4402 O.2     1  UNL1       -0.1727
     33 O         144.2062  141.5994  164.6217 O.2     1  UNL1       -0.1727
@<TRIPOS>BOND
     1    30    31    1
     2    31    32    2
     3    31    33    2
     4    31    24    1
     5    24     1    1
     6     1     2   ar
     7     2     3   ar
     8     3    15    1
     9    15    16    2
    10    16    17    1
    11    17    18    2
    12    18    19    1
    13    19    20    2
    14    20    21    1
    15    21    22    2
    16    22    23    1
    17     3     4   ar
    18     4     5   ar
    19     5     6   ar
    20     6     7    1
    21     7     8    1
    22     9     8    1
    23     9    10    1
    24    10    11    1
    25    11    12    1
    26    12    13    1
    27    13    14    1
    28    24    25    1
    29    25    26    1
    30    26    27    1
    31    27    28    1
    32    28    29    1
    33    29    24    1
    34     6     1   ar
    35    14     9    1
    36    23    15    1
    37    14     5    1
    38    23    19    1
@<TRIPOS>MOLECULE
*****
 33 38 0 0 0
SMALL
GASTEIGER

@<TRIPOS>ATOM
      1 C         141.2729  140.0002  161.6113 C.ar    1  UNL1        0.1170
      2 N         140.7692  139.5803  162.9604 N.ar    1  UNL1       -0.2264
      3 C         140.0595  140.5693  163.8371 C.ar    1  UNL1        0.1602
      4 N         139.8536  141.9779  163.3647 N.ar    1  UNL1       -0.2091
      5 C         140.3573  142.3978  162.0157 C.ar    1  UNL1        0.1690
      6 C         141.0669  141.4089  161.1390 C.ar    1  UNL1        0.1850
      7 O         141.5706  141.8288  159.7899 O.3     1  UNL1       -0.4695
      8 C         141.3647  143.2374  159.3175 C.3     1  UNL1        0.2277
      9 C         140.6551  144.2264  160.1942 C.3     1  UNL1        0.1477
     10 C         140.4492  145.6350  159.7218 C.3     1  UNL1        0.1657
     11 O         139.7396  146.6239  160.5985 O.3     1  UNL1       -0.3501
     12 C         139.2359  146.2040  161.9476 C.3     1  UNL1        0.1636
     13 C         139.4418  144.7954  162.4200 C.3     1  UNL1        0.1244
     14 N         140.1514  143.8065  161.5433 N.pl3   1  UNL1       -0.2840
     15 C         139.5559  140.1494  165.1862 C.2     1  UNL1        0.0230
     16 C         138.5052  139.0844  165.2964 C.2     1  UNL1       -0.0005
     17 C         138.0015  138.6646  166.6455 C.2     1  UNL1        0.0010
     18 C         138.5485  139.3098  167.8844 C.2     1  UNL1        0.0153
     19 C         139.5990  140.3747  167.7741 C.2     1  UNL1        0.0669
     20 N         140.3206  141.1840  168.8107 N.2     1  UNL1       -0.2478
     21 C         141.2702  142.1040  168.1023 C.2     1  UNL1        0.0946
     22 C         141.1355  141.8633  166.6279 C.2     1  UNL1        0.0046
     23 C         140.1027  140.7945  166.4250 C.3     1  UNL1        0.0888
     24 C         141.9824  139.0113  160.7346 C.3     1  UNL1        0.1533
     25 C         140.7145  139.1894  159.9532 C.3     1  UNL1        0.0599
     26 C         140.5109  138.4361  158.6722 C.3     1  UNL1        0.1443
     27 O         141.5754  137.5046  158.1726 O.3     1  UNL1       -0.3536
     28 C         142.8432  137.3266  158.9541 C.3     1  UNL1        0.1443
     29 C         143.0468  138.0799  160.2351 C.3     1  UNL1        0.0599
     30 C         144.0254  139.3421  162.9066 C.3     1  UNL1        0.1764
     31 S         143.0039  139.1767  161.8205 S.O2    1  UNL1       -0.0062
     32 O         143.4896  140.1276  161.5844 O.2     1  UNL1       -0.1727
     33 O         142.5720  137.8737  162.4253 O.2     1  UNL1       -0.1727
@<TRIPOS>BOND
     1    30    31    1
     2    31    32    2
     3    31    33    2
     4    31    24    1
     5    24     1    1
     6     1     2   ar
     7     2     3   ar
     8     3    15    1
     9    15    16    2
    10    16    17    1
    11    17    18    2
    12    18    19    1
    13    19    20    2
    14    20    21    1
    15    21    22    2
    16    22    23    1
    17     3     4   ar
    18     4     5   ar
    19     5     6   ar
    20     6     7    1
    21     7     8    1
    22     9     8    1
    23     9    10    1
    24    10    11    1
    25    11    12    1
    26    12    13    1
    27    13    14    1
    28    24    25    1
    29    25    26    1
    30    26    27    1
    31    27    28    1
    32    28    29    1
    33    29    24    1
    34     6     1   ar
    35    14     9    1
    36    23    15    1
    37    14     5    1
    38    23    19    1
@<TRIPOS>MOLECULE
*****
 33 38 0 0 0
SMALL
GASTEIGER

@<TRIPOS>ATOM
      1 C         139.4111  142.6139  160.6569 C.ar    1  UNL1        0.1170
      2 N         138.7510  143.1677  159.4291 N.ar    1  UNL1       -0.2264
      3 C         138.9652  142.5068  158.0996 C.ar    1  UNL1        0.1602
      4 N         139.8393  141.2921  157.9980 N.ar    1  UNL1       -0.2091
      5 C         140.4994  140.7383  159.2259 C.ar    1  UNL1        0.1690
      6 C         140.2853  141.3991  160.5553 C.ar    1  UNL1        0.1850
      7 O         140.9454  140.8453  161.7831 O.3     1  UNL1       -0.4695
      8 C         141.8195  139.6306  161.6816 C.3     1  UNL1        0.2277
      9 C         142.0336  138.9697  160.3521 C.3     1  UNL1        0.1477
     10 C         142.9077  137.7550  160.2506 C.3     1  UNL1        0.1657
     11 O         143.1218  137.0941  158.9212 O.3     1  UNL1       -0.3501
     12 C         142.4617  137.6479  157.6933 C.3     1  UNL1        0.1636
     13 C         141.5876  138.8626  157.7949 C.3     1  UNL1        0.1244
     14 N         141.3735  139.5235  159.1243 N.pl3   1  UNL1       -0.2840
     15 C         138.3051  143.0606  156.8718 C.2     1  UNL1        0.0230
     16 C         138.8263  144.3188  156.2428 C.2     1  UNL1       -0.0005
     17 C         138.1662  144.8726  155.0150 C.2     1  UNL1        0.0010
     18 C         136.9850  144.1682  154.4161 C.2     1  UNL1        0.0153
     19 C         136.4638  142.9101  155.0450 C.2     1  UNL1        0.0669
     20 N         135.3251  142.0037  154.6821 N.2     1  UNL1       -0.2478
     21 C         135.2814  140.8897  155.6856 C.2     1  UNL1        0.0946
     22 C         136.3931  141.1076  156.6687 C.2     1  UNL1        0.0046
     23 C         137.1239  142.3563  156.2728 C.3     1  UNL1        0.0888
     24 C         139.1970  143.2748  161.9863 C.3     1  UNL1        0.1533
     25 C         138.2341  142.1308  162.1061 C.3     1  UNL1        0.0599
     26 C         137.4175  141.9654  163.3533 C.3     1  UNL1        0.1443
     27 O         137.5636  142.9439  164.4808 O.3     1  UNL1       -0.3536
     28 C         138.5265  144.0878  164.3610 C.3     1  UNL1        0.1443
     29 C         139.3432  144.2532  163.1138 C.3     1  UNL1        0.0599
     30 C         141.2714  145.1036  160.8234 C.3     1  UNL1        0.1764
     31 S         140.2342  144.1891  161.4049 S.O2    1  UNL1       -0.0062
     32 O         141.1676  143.6283  161.5050 O.2     1  UNL1       -0.1727
     33 O         139.1734  145.2102  161.1182 O.2     1  UNL1       -0.1727
@<TRIPOS>BOND
     1    30    31    1
     2    31    32    2
     3    31    33    2
     4    31    24    1
     5    24     1    1
     6     1     2   ar
     7     2     3   ar
     8     3    15    1
     9    15    16    2
    10    16    17    1
    11    17    18    2
    12    18    19    1
    13    19    20    2
    14    20    21    1
    15    21    22    2
    16    22    23    1
    17     3     4   ar
    18     4     5   ar
    19     5     6   ar
    20     6     7    1
    21     7     8    1
    22     9     8    1
    23     9    10    1
    24    10    11    1
    25    11    12    1
    26    12    13    1
    27    13    14    1
    28    24    25    1
    29    25    26    1
    30    26    27    1
    31    27    28    1
    32    28    29    1
    33    29    24    1
    34     6     1   ar
    35    14     9    1
    36    23    15    1
    37    14     5    1
    38    23    19    1
@<TRIPOS>MOLECULE
*****
 33 38 0 0 0
SMALL
GASTEIGER

@<TRIPOS>ATOM
      1 C         141.8488  139.7440  162.0959 C.ar    1  UNL1        0.1170
      2 N         142.1274  139.0539  160.7935 N.ar    1  UNL1       -0.2264
      3 C         141.9396  139.7896  159.4998 C.ar    1  UNL1        0.1602
      4 N         141.4733  141.2152  159.5085 N.ar    1  UNL1       -0.2091
      5 C         141.1948  141.9052  160.8109 C.ar    1  UNL1        0.1690
      6 C         141.3825  141.1697  162.1046 C.ar    1  UNL1        0.1850
      7 O         141.1040  141.8597  163.4070 O.3     1  UNL1       -0.4695
      8 C         140.6377  143.2853  163.4157 C.3     1  UNL1        0.2277
      9 C         140.4499  144.0210  162.1220 C.3     1  UNL1        0.1477
     10 C         139.9837  145.4466  162.1307 C.3     1  UNL1        0.1657
     11 O         139.7959  146.1822  160.8370 O.3     1  UNL1       -0.3501
     12 C         140.0745  145.4922  159.5346 C.3     1  UNL1        0.1636
     13 C         140.5408  144.0665  159.5259 C.3     1  UNL1        0.1244
     14 N         140.7285  143.3310  160.8196 N.pl3   1  UNL1       -0.2840
     15 C         142.2182  139.0995  158.1974 C.2     1  UNL1        0.0230
     16 C         141.3508  137.9595  157.7521 C.2     1  UNL1       -0.0005
     17 C         141.6294  137.2694  156.4497 C.2     1  UNL1        0.0010
     18 C         142.7752  137.7194  155.5926 C.2     1  UNL1        0.0153
     19 C         143.6425  138.8594  156.0378 C.2     1  UNL1        0.0669
     20 N         144.8339  139.5192  155.4092 N.2     1  UNL1       -0.2478
     21 C         145.2917  140.6170  156.3231 C.2     1  UNL1        0.0946
     22 C         144.3832  140.6357  157.5165 C.2     1  UNL1        0.0046
     23 C         143.3639  139.5494  157.3402 C.3     1  UNL1        0.0888
     24 C         142.0366  139.0084  163.3895 C.3     1  UNL1        0.1533
     25 C         143.2894  139.8332  163.3747 C.3     1  UNL1        0.0599
     26 C         144.2722  139.7246  164.5027 C.3     1  UNL1        0.1443
     27 O         144.0021  138.7913  165.6456 O.3     1  UNL1       -0.3536
     28 C         142.7493  137.9665  165.6603 C.3     1  UNL1        0.1443
     29 C         141.7666  138.0751  164.5324 C.3     1  UNL1        0.0599
     30 C         139.4006  137.8697  162.5206 C.3     1  UNL1        0.1764
     31 S         140.7186  138.4391  162.9551 S.O2    1  UNL1       -0.0062
     32 O         139.9906  139.1976  163.2558 O.2     1  UNL1       -0.1727
     33 O         141.4190  137.2247  162.4215 O.2     1  UNL1       -0.1727
@<TRIPOS>BOND
     1    30    31    1
     2    31    32    2
     3    31    33    2
     4    31    24    1
     5    24     1    1
     6     1     2   ar
     7     2     3   ar
     8     3    15    1
     9    15    16    2
    10    16    17    1
    11    17    18    2
    12    18    19    1
    13    19    20    2
    14    20    21    1
    15    21    22    2
    16    22    23    1
    17     3     4   ar
    18     4     5   ar
    19     5     6   ar
    20     6     7    1
    21     7     8    1
    22     9     8    1
    23     9    10    1
    24    10    11    1
    25    11    12    1
    26    12    13    1
    27    13    14    1
    28    24    25    1
    29    25    26    1
    30    26    27    1
    31    27    28    1
    32    28    29    1
    33    29    24    1
    34     6     1   ar
    35    14     9    1
    36    23    15    1
    37    14     5    1
    38    23    19    1
