@<TRIPOS>MOLECULE
*****
 27 30 0 0 0
SMALL
GASTEIGER

@<TRIPOS>ATOM
      1 N         138.5078  138.6737  162.8321 N.3     1  UNL1       -0.2722
      2 C         138.1391  139.9876  163.4546 C.3     1  UNL1        0.0754
      3 C         138.1338  140.1351  164.9474 C.3     1  UNL1        0.0543
      4 C         138.4973  138.9686  165.8176 C.3     1  UNL1        0.1331
      5 C         138.8661  137.6547  165.1949 C.3     1  UNL1        0.0543
      6 C         138.8714  137.5072  163.7022 C.3     1  UNL1        0.0754
      7 N         138.4921  139.1160  167.3103 N.pl3   1  UNL1       -0.2232
      8 H         137.7943  138.6742  167.8461 H       1  UNL1        0.2454
      9 C         139.5499  139.9367  167.9866 C.cat   1  UNL1        0.4199
     10 N         140.9277  140.2073  167.4588 N.2     1  UNL1       -0.0679
     11 C         141.6450  141.0687  168.4555 C.2     1  UNL1        0.1887
     12 C         143.0283  141.6485  168.4692 C.2     1  UNL1        0.0395
     13 C         143.4773  142.4901  169.6269 C.2     1  UNL1       -0.0010
     14 C         142.5429  142.7518  170.7708 C.2     1  UNL1       -0.0181
     15 C         141.1596  142.1720  170.7570 C.3     1  UNL1        0.0932
     16 C         140.7107  141.3304  169.5993 C.2     1  UNL1        0.1744
     17 N         139.4159  140.6308  169.3095 N.2     1  UNL1       -0.0718
     18 C         138.5131  138.5263  161.3393 C.3     1  UNL1        0.0768
     19 C         139.8114  138.3606  160.6066 C.3     1  UNL1        0.0437
     20 C         143.5531  140.2916  162.1943 C.ar    1  UNL1        0.0684
     21 C         142.4379  141.1421  161.6624 C.ar    1  UNL1        0.0100
     22 C         141.1907  140.4985  161.1332 C.ar    1  UNL1       -0.0035
     23 C         141.0586  139.0042  161.1358 C.ar    1  UNL1       -0.0207
     24 C         142.1738  138.1537  161.6677 C.ar    1  UNL1       -0.0035
     25 C         143.4211  138.7974  162.1969 C.ar    1  UNL1        0.0100
     26 N         146.0477  141.5789  163.2527 N.1     1  UNL1       -0.1908
     27 C         144.8004  140.9352  162.7235 C.1     1  UNL1        0.1004
@<TRIPOS>BOND
     1    26    27    3
     2    27    20    1
     3    20    21   ar
     4    21    22   ar
     5    22    23   ar
     6    23    19    1
     7    19    18    1
     8    18     1    1
     9     1     2    1
    10     2     3    1
    11     3     4    1
    12     4     7    1
    13     7     9    1
    14     9    10    2
    15    10    11    1
    16    11    12    2
    17    12    13    1
    18    13    14    2
    19    14    15    1
    20    15    16    1
    21    16    17    2
    22     4     5    1
    23     5     6    1
    24    23    24   ar
    25    24    25   ar
    26    25    20   ar
    27     6     1    1
    28    17     9    1
    29    16    11    1
    30     7     8    1
@<TRIPOS>MOLECULE
*****
 27 30 0 0 0
SMALL
GASTEIGER

@<TRIPOS>ATOM
      1 N         144.2794  141.2370  161.8233 N.3     1  UNL1       -0.2722
      2 C         145.0852  141.5554  163.0478 C.3     1  UNL1        0.0754
      3 C         144.9583  140.6990  164.2728 C.3     1  UNL1        0.0543
      4 C         144.0257  139.5242  164.2732 C.3     1  UNL1        0.1331
      5 C         143.2199  139.2058  163.0487 C.3     1  UNL1        0.0543
      6 C         143.3468  140.0622  161.8238 C.3     1  UNL1        0.0754
      7 N         143.8988  138.6677  165.4981 N.pl3   1  UNL1       -0.2232
      8 H         144.4479  137.8558  165.5901 H       1  UNL1        0.2454
      9 C         142.9353  139.0484  166.5829 C.cat   1  UNL1        0.4199
     10 N         141.5599  139.6124  166.3826 N.2     1  UNL1       -0.0679
     11 C         140.9526  139.8445  167.7344 C.2     1  UNL1        0.1887
     12 C         139.6182  140.3844  168.1559 C.2     1  UNL1        0.0395
     13 C         139.2838  140.5038  169.6132 C.2     1  UNL1       -0.0010
     14 C         140.2839  140.0832  170.6491 C.2     1  UNL1       -0.0181
     15 C         141.6184  139.5433  170.2275 C.3     1  UNL1        0.0932
     16 C         141.9527  139.4239  168.7702 C.2     1  UNL1        0.1744
     17 N         143.1780  138.9319  168.0585 N.2     1  UNL1       -0.0718
     18 C         144.4063  142.0935  160.5984 C.3     1  UNL1        0.0768
     19 C         143.4209  143.1966  160.3492 C.3     1  UNL1        0.0437
     20 C         140.4631  144.3355  163.5435 C.ar    1  UNL1        0.0684
     21 C         140.0639  143.3806  162.4578 C.ar    1  UNL1        0.0100
     22 C         141.0498  143.0010  161.3930 C.ar    1  UNL1       -0.0035
     23 C         142.4350  143.5762  161.4139 C.ar    1  UNL1       -0.0207
     24 C         142.8342  144.5311  162.4997 C.ar    1  UNL1       -0.0035
     25 C         141.8482  144.9107  163.5645 C.ar    1  UNL1        0.0100
     26 N         138.4912  145.0947  165.6732 N.1     1  UNL1       -0.1908
     27 C         139.4772  144.7151  164.6083 C.1     1  UNL1        0.1004
@<TRIPOS>BOND
     1    26    27    3
     2    27    20    1
     3    20    21   ar
     4    21    22   ar
     5    22    23   ar
     6    23    19    1
     7    19    18    1
     8    18     1    1
     9     1     2    1
    10     2     3    1
    11     3     4    1
    12     4     7    1
    13     7     9    1
    14     9    10    2
    15    10    11    1
    16    11    12    2
    17    12    13    1
    18    13    14    2
    19    14    15    1
    20    15    16    1
    21    16    17    2
    22     4     5    1
    23     5     6    1
    24    23    24   ar
    25    24    25   ar
    26    25    20   ar
    27     6     1    1
    28    17     9    1
    29    16    11    1
    30     7     8    1
@<TRIPOS>MOLECULE
*****
 27 30 0 0 0
SMALL
GASTEIGER

@<TRIPOS>ATOM
      1 N         138.5206  138.6923  162.5905 N.3     1  UNL1       -0.2722
      2 C         138.8669  137.5214  163.4616 C.3     1  UNL1        0.0754
      3 C         138.8474  137.6655  164.9545 C.3     1  UNL1        0.0543
      4 C         138.4815  138.9806  165.5763 C.3     1  UNL1        0.1331
      5 C         138.1352  140.1516  164.7052 C.3     1  UNL1        0.0543
      6 C         138.1547  140.0074  163.2123 C.3     1  UNL1        0.0754
      7 N         138.4620  139.1247  167.0692 N.pl3   1  UNL1       -0.2232
      8 H         137.7547  138.6879  167.5967 H       1  UNL1        0.2454
      9 C         139.5199  139.9344  167.7585 C.cat   1  UNL1        0.4199
     10 N         139.4121  140.5468  169.1235 N.2     1  UNL1       -0.0679
     11 C         140.6970  141.2647  169.4124 C.2     1  UNL1        0.1887
     12 C         141.1622  142.0502  170.6026 C.2     1  UNL1        0.0395
     13 C         142.5295  142.6671  170.6062 C.2     1  UNL1       -0.0010
     14 C         143.4315  142.4984  169.4197 C.2     1  UNL1       -0.0181
     15 C         142.9664  141.7129  168.2296 C.3     1  UNL1        0.0932
     16 C         141.5991  141.0960  168.2259 C.2     1  UNL1        0.1744
     17 N         140.8716  140.2738  167.2038 N.2     1  UNL1       -0.0718
     18 C         138.5402  138.5482  161.0975 C.3     1  UNL1        0.0768
     19 C         139.8480  138.4326  160.3722 C.3     1  UNL1        0.0437
     20 C         143.5528  140.3139  162.1000 C.ar    1  UNL1        0.0684
     21 C         143.3333  138.8355  162.2270 C.ar    1  UNL1        0.0100
     22 C         142.0984  138.2084  161.6511 C.ar    1  UNL1       -0.0035
     23 C         141.0829  139.0597  160.9481 C.ar    1  UNL1       -0.0207
     24 C         141.3025  140.5381  160.8210 C.ar    1  UNL1       -0.0035
     25 C         142.5374  141.1652  161.3970 C.ar    1  UNL1        0.0100
     26 N         146.0227  141.5681  163.2518 N.1     1  UNL1       -0.1908
     27 C         144.7877  140.9410  162.6759 C.1     1  UNL1        0.1004
@<TRIPOS>BOND
     1    26    27    3
     2    27    20    1
     3    20    21   ar
     4    21    22   ar
     5    22    23   ar
     6    23    19    1
     7    19    18    1
     8    18     1    1
     9     1     2    1
    10     2     3    1
    11     3     4    1
    12     4     7    1
    13     7     9    1
    14     9    10    2
    15    10    11    1
    16    11    12    2
    17    12    13    1
    18    13    14    2
    19    14    15    1
    20    15    16    1
    21    16    17    2
    22     4     5    1
    23     5     6    1
    24    23    24   ar
    25    24    25   ar
    26    25    20   ar
    27     6     1    1
    28    17     9    1
    29    16    11    1
    30     7     8    1
@<TRIPOS>MOLECULE
*****
 27 30 0 0 0
SMALL
GASTEIGER

@<TRIPOS>ATOM
      1 N         140.0950  139.2049  161.7242 N.3     1  UNL1       -0.2722
      2 C         141.2607  140.1488  161.7428 C.3     1  UNL1        0.0754
      3 C         142.3091  140.0249  162.8086 C.3     1  UNL1        0.0543
      4 C         142.1917  138.9572  163.8556 C.3     1  UNL1        0.1331
      5 C         141.0260  138.0134  163.8369 C.3     1  UNL1        0.0543
      6 C         139.9777  138.1372  162.7712 C.3     1  UNL1        0.0754
      7 N         143.2400  138.8333  164.9212 N.pl3   1  UNL1       -0.2232
      8 H         144.0615  138.3199  164.7463 H       1  UNL1        0.2454
      9 C         143.0366  139.4918  166.2536 C.cat   1  UNL1        0.4199
     10 N         143.0093  138.7997  167.5841 N.2     1  UNL1       -0.0679
     11 C         142.7806  139.8381  168.6421 C.2     1  UNL1        0.1887
     12 C         142.6615  139.7414  170.1342 C.2     1  UNL1        0.0395
     13 C         142.4283  140.9786  170.9497 C.2     1  UNL1       -0.0010
     14 C         142.3141  142.3124  170.2731 C.2     1  UNL1       -0.0181
     15 C         142.4332  142.4091  168.7810 C.3     1  UNL1        0.0932
     16 C         142.6664  141.1720  167.9655 C.2     1  UNL1        0.1744
     17 N         142.8246  140.9579  166.4893 N.2     1  UNL1       -0.0718
     18 C         139.0467  139.3288  160.6585 C.3     1  UNL1        0.0768
     19 C         137.8602  140.2209  160.8737 C.3     1  UNL1        0.0437
     20 C         137.9787  143.3918  164.0645 C.ar    1  UNL1        0.0684
     21 C         138.2183  143.7614  162.6306 C.ar    1  UNL1        0.0100
     22 C         138.1788  142.7044  161.5670 C.ar    1  UNL1       -0.0035
     23 C         137.8997  141.2778  161.9372 C.ar    1  UNL1       -0.0207
     24 C         137.6601  140.9083  163.3711 C.ar    1  UNL1       -0.0035
     25 C         137.6996  141.9653  164.4347 C.ar    1  UNL1        0.0100
     26 N         138.0577  145.5057  166.1917 N.1     1  UNL1       -0.1908
     27 C         138.0182  144.4487  165.1280 C.1     1  UNL1        0.1004
@<TRIPOS>BOND
     1    26    27    3
     2    27    20    1
     3    20    21   ar
     4    21    22   ar
     5    22    23   ar
     6    23    19    1
     7    19    18    1
     8    18     1    1
     9     1     2    1
    10     2     3    1
    11     3     4    1
    12     4     7    1
    13     7     9    1
    14     9    10    2
    15    10    11    1
    16    11    12    2
    17    12    13    1
    18    13    14    2
    19    14    15    1
    20    15    16    1
    21    16    17    2
    22     4     5    1
    23     5     6    1
    24    23    24   ar
    25    24    25   ar
    26    25    20   ar
    27     6     1    1
    28    17     9    1
    29    16    11    1
    30     7     8    1
@<TRIPOS>MOLECULE
*****
 27 30 0 0 0
SMALL
GASTEIGER

@<TRIPOS>ATOM
      1 N         140.9764  138.7066  161.1749 N.3     1  UNL1       -0.2722
      2 C         140.3023  138.8732  159.8454 C.3     1  UNL1        0.0754
      3 C         140.9769  138.3883  158.5964 C.3     1  UNL1        0.0543
      4 C         142.3257  137.7369  158.6771 C.3     1  UNL1        0.1331
      5 C         142.9997  137.5702  160.0068 C.3     1  UNL1        0.0543
      6 C         142.3251  138.0551  161.2556 C.3     1  UNL1        0.0754
      7 N         143.0003  137.2520  157.4282 N.pl3   1  UNL1       -0.2232
      8 H         143.5825  137.8586  156.9160 H       1  UNL1        0.2454
      9 C         142.7879  135.8430  156.9597 C.cat   1  UNL1        0.4199
     10 N         143.4188  134.6145  157.5452 N.2     1  UNL1       -0.0679
     11 C         142.9281  133.4273  156.7708 C.2     1  UNL1        0.1887
     12 C         143.2113  131.9597  156.8972 C.2     1  UNL1        0.0395
     13 C         142.5602  130.9869  155.9593 C.2     1  UNL1       -0.0010
     14 C         141.6260  131.4816  154.8952 C.2     1  UNL1       -0.0181
     15 C         141.3428  132.9491  154.7688 C.3     1  UNL1        0.0932
     16 C         141.9939  133.9220  155.7066 C.2     1  UNL1        0.1744
     17 N         141.9072  135.4149  155.8234 N.2     1  UNL1       -0.0718
     18 C         140.3017  139.1915  162.4239 C.3     1  UNL1        0.0768
     19 C         140.0151  138.2333  163.5418 C.3     1  UNL1        0.0437
     20 C         139.4227  139.7730  167.7285 C.ar    1  UNL1        0.0684
     21 C         140.7636  139.8947  167.0673 C.ar    1  UNL1        0.0100
     22 C         140.9611  139.3815  165.6718 C.ar    1  UNL1       -0.0035
     23 C         139.8176  138.7465  164.9373 C.ar    1  UNL1       -0.0207
     24 C         138.4767  138.6249  165.5985 C.ar    1  UNL1       -0.0035
     25 C         138.2792  139.1381  166.9941 C.ar    1  UNL1        0.0100
     26 N         139.0277  140.7995  170.5196 N.1     1  UNL1       -0.1908
     27 C         139.2252  140.2862  169.1240 C.1     1  UNL1        0.1004
@<TRIPOS>BOND
     1    26    27    3
     2    27    20    1
     3    20    21   ar
     4    21    22   ar
     5    22    23   ar
     6    23    19    1
     7    19    18    1
     8    18     1    1
     9     1     2    1
    10     2     3    1
    11     3     4    1
    12     4     7    1
    13     7     9    1
    14     9    10    2
    15    10    11    1
    16    11    12    2
    17    12    13    1
    18    13    14    2
    19    14    15    1
    20    15    16    1
    21    16    17    2
    22     4     5    1
    23     5     6    1
    24    23    24   ar
    25    24    25   ar
    26    25    20   ar
    27     6     1    1
    28    17     9    1
    29    16    11    1
    30     7     8    1
@<TRIPOS>MOLECULE
*****
 27 30 0 0 0
SMALL
GASTEIGER

@<TRIPOS>ATOM
      1 N         138.5022  140.4287  165.4558 N.3     1  UNL1       -0.2722
      2 C         139.6291  141.2232  166.0464 C.3     1  UNL1        0.0754
      3 C         140.0089  142.5453  165.4479 C.3     1  UNL1        0.0543
      4 C         139.2618  143.0726  164.2589 C.3     1  UNL1        0.1331
      5 C         138.1349  142.2780  163.6684 C.3     1  UNL1        0.0543
      6 C         137.7551  140.9560  164.2669 C.3     1  UNL1        0.0754
      7 N         139.6416  144.3945  163.6604 N.pl3   1  UNL1       -0.2232
      8 H         139.5257  145.2221  164.1810 H       1  UNL1        0.2454
      9 C         140.1979  144.4557  162.2687 C.cat   1  UNL1        0.4199
     10 N         141.3834  143.6912  161.7587 N.2     1  UNL1       -0.0679
     11 C         141.5847  144.0551  160.3175 C.2     1  UNL1        0.1887
     12 C         142.5970  143.6133  159.3027 C.2     1  UNL1        0.0395
     13 C         142.5483  144.1610  157.9072 C.2     1  UNL1       -0.0010
     14 C         141.4871  145.1504  157.5264 C.2     1  UNL1       -0.0181
     15 C         140.4748  145.5922  158.5412 C.3     1  UNL1        0.0932
     16 C         140.5235  145.0445  159.9368 C.2     1  UNL1        0.1744
     17 N         139.6665  145.2921  161.1427 N.2     1  UNL1       -0.0718
     18 C         138.1224  139.1067  166.0543 C.3     1  UNL1        0.0768
     19 C         138.6853  137.8372  165.4873 C.3     1  UNL1        0.0437
     20 C         141.4280  137.9872  161.9228 C.ar    1  UNL1        0.0684
     21 C         141.9993  137.9977  163.3097 C.ar    1  UNL1        0.0100
     22 C         141.0851  137.9477  164.4979 C.ar    1  UNL1       -0.0035
     23 C         139.5995  137.8872  164.2991 C.ar    1  UNL1       -0.0207
     24 C         139.0282  137.8767  162.9122 C.ar    1  UNL1       -0.0035
     25 C         139.9425  137.9267  161.7241 C.ar    1  UNL1        0.0100
     26 N         143.2564  138.0871  159.5465 N.1     1  UNL1       -0.1908
     27 C         142.3422  138.0372  160.7347 C.1     1  UNL1        0.1004
@<TRIPOS>BOND
     1    26    27    3
     2    27    20    1
     3    20    21   ar
     4    21    22   ar
     5    22    23   ar
     6    23    19    1
     7    19    18    1
     8    18     1    1
     9     1     2    1
    10     2     3    1
    11     3     4    1
    12     4     7    1
    13     7     9    1
    14     9    10    2
    15    10    11    1
    16    11    12    2
    17    12    13    1
    18    13    14    2
    19    14    15    1
    20    15    16    1
    21    16    17    2
    22     4     5    1
    23     5     6    1
    24    23    24   ar
    25    24    25   ar
    26    25    20   ar
    27     6     1    1
    28    17     9    1
    29    16    11    1
    30     7     8    1
@<TRIPOS>MOLECULE
*****
 27 30 0 0 0
SMALL
GASTEIGER

@<TRIPOS>ATOM
      1 N         139.3383  137.9931  162.5224 N.3     1  UNL1       -0.2722
      2 C         140.7573  138.1164  162.0523 C.3     1  UNL1        0.0754
      3 C         141.8710  138.2303  163.0507 C.3     1  UNL1        0.0543
      4 C         141.5655  138.2210  164.5193 C.3     1  UNL1        0.1331
      5 C         140.1464  138.0977  164.9894 C.3     1  UNL1        0.0543
      6 C         139.0328  137.9837  163.9909 C.3     1  UNL1        0.0754
      7 N         142.6791  138.3350  165.5177 N.pl3   1  UNL1       -0.2232
      8 H         143.4871  137.7812  165.4192 H       1  UNL1        0.2454
      9 C         142.5617  139.2927  166.6662 C.cat   1  UNL1        0.4199
     10 N         142.0279  140.6927  166.5956 N.2     1  UNL1       -0.0679
     11 C         142.0937  141.2839  167.9727 C.2     1  UNL1        0.1887
     12 C         141.7048  142.6306  168.5064 C.2     1  UNL1        0.0395
     13 C         141.8903  142.9426  169.9618 C.2     1  UNL1       -0.0010
     14 C         142.4646  141.9079  170.8835 C.2     1  UNL1       -0.0181
     15 C         142.8535  140.5611  170.3497 C.3     1  UNL1        0.0932
     16 C         142.6681  140.2491  168.8943 C.2     1  UNL1        0.1744
     17 N         142.9573  139.0185  168.0868 N.2     1  UNL1       -0.0718
     18 C         138.2246  137.8791  161.5239 C.3     1  UNL1        0.0768
     19 C         137.3517  139.0643  161.2355 C.3     1  UNL1        0.0437
     20 C         138.9564  143.2306  161.7986 C.ar    1  UNL1        0.0684
     21 C         138.0199  142.6441  162.8130 C.ar    1  UNL1        0.0100
     22 C         137.4850  141.2554  162.6253 C.ar    1  UNL1       -0.0035
     23 C         137.8866  140.4530  161.4232 C.ar    1  UNL1       -0.0207
     24 C         138.8231  141.0395  160.4088 C.ar    1  UNL1       -0.0035
     25 C         139.3580  142.4283  160.5966 C.ar    1  UNL1        0.0100
     26 N         140.0262  146.0081  162.1740 N.1     1  UNL1       -0.1908
     27 C         139.4913  144.6193  161.9863 C.1     1  UNL1        0.1004
@<TRIPOS>BOND
     1    26    27    3
     2    27    20    1
     3    20    21   ar
     4    21    22   ar
     5    22    23   ar
     6    23    19    1
     7    19    18    1
     8    18     1    1
     9     1     2    1
    10     2     3    1
    11     3     4    1
    12     4     7    1
    13     7     9    1
    14     9    10    2
    15    10    11    1
    16    11    12    2
    17    12    13    1
    18    13    14    2
    19    14    15    1
    20    15    16    1
    21    16    17    2
    22     4     5    1
    23     5     6    1
    24    23    24   ar
    25    24    25   ar
    26    25    20   ar
    27     6     1    1
    28    17     9    1
    29    16    11    1
    30     7     8    1
@<TRIPOS>MOLECULE
*****
 27 30 0 0 0
SMALL
GASTEIGER

@<TRIPOS>ATOM
      1 N         140.2285  138.8422  159.4763 N.3     1  UNL1       -0.2722
      2 C         139.9825  138.5766  158.0206 C.3     1  UNL1        0.0754
      3 C         141.0449  137.9229  157.1875 C.3     1  UNL1        0.0543
      4 C         142.3533  137.5348  157.8101 C.3     1  UNL1        0.1331
      5 C         142.5992  137.8004  159.2658 C.3     1  UNL1        0.0543
      6 C         141.5368  138.4540  160.0989 C.3     1  UNL1        0.0754
      7 N         143.4157  136.8811  156.9770 N.pl3   1  UNL1       -0.2232
      8 H         144.1967  137.4010  156.6788 H       1  UNL1        0.2454
      9 C         143.2880  135.4354  156.5982 C.cat   1  UNL1        0.4199
     10 N         143.0007  134.9059  155.2245 N.2     1  UNL1       -0.0679
     11 C         142.9604  133.4085  155.3040 C.2     1  UNL1        0.1887
     12 C         142.7187  132.3544  154.2645 C.2     1  UNL1        0.0395
     13 C         142.7394  130.9044  154.6479 C.2     1  UNL1       -0.0010
     14 C         143.0018  130.5085  156.0707 C.2     1  UNL1       -0.0181
     15 C         143.2435  131.5626  157.1101 C.3     1  UNL1        0.0932
     16 C         143.2228  133.0126  156.7268 C.2     1  UNL1        0.1744
     17 N         143.4253  134.2652  157.5267 N.2     1  UNL1       -0.0718
     18 C         139.1661  139.4959  160.3094 C.3     1  UNL1        0.0768
     19 C         138.3129  138.6664  161.2226 C.3     1  UNL1        0.0437
     20 C         138.6102  139.2003  165.6809 C.ar    1  UNL1        0.0684
     21 C         138.1676  140.3435  164.8165 C.ar    1  UNL1        0.0100
     22 C         138.0685  140.1656  163.3304 C.ar    1  UNL1       -0.0035
     23 C         138.4120  138.8444  162.7087 C.ar    1  UNL1       -0.0207
     24 C         138.8547  137.7012  163.5731 C.ar    1  UNL1       -0.0035
     25 C         138.9538  137.8792  165.0592 C.ar    1  UNL1        0.0100
     26 N         138.8085  139.5563  168.6531 N.1     1  UNL1       -0.1908
     27 C         138.7094  139.3783  167.1670 C.1     1  UNL1        0.1004
@<TRIPOS>BOND
     1    26    27    3
     2    27    20    1
     3    20    21   ar
     4    21    22   ar
     5    22    23   ar
     6    23    19    1
     7    19    18    1
     8    18     1    1
     9     1     2    1
    10     2     3    1
    11     3     4    1
    12     4     7    1
    13     7     9    1
    14     9    10    2
    15    10    11    1
    16    11    12    2
    17    12    13    1
    18    13    14    2
    19    14    15    1
    20    15    16    1
    21    16    17    2
    22     4     5    1
    23     5     6    1
    24    23    24   ar
    25    24    25   ar
    26    25    20   ar
    27     6     1    1
    28    17     9    1
    29    16    11    1
    30     7     8    1
@<TRIPOS>MOLECULE
*****
 27 30 0 0 0
SMALL
GASTEIGER

@<TRIPOS>ATOM
      1 N         140.0070  138.0374  164.4469 N.3     1  UNL1       -0.2722
      2 C         141.3466  138.3518  165.0440 C.3     1  UNL1        0.0754
      3 C         142.5655  138.3950  164.1707 C.3     1  UNL1        0.0543
      4 C         142.4447  138.1238  162.7004 C.3     1  UNL1        0.1331
      5 C         141.1049  137.8094  162.1033 C.3     1  UNL1        0.0543
      6 C         139.8862  137.7662  162.9766 C.3     1  UNL1        0.0754
      7 N         143.6634  138.1670  161.8271 N.pl3   1  UNL1       -0.2232
      8 H         144.4226  137.5679  162.0115 H       1  UNL1        0.2454
      9 C         143.7256  139.1230  160.6729 C.cat   1  UNL1        0.4199
     10 N         143.9415  140.6044  160.7656 N.2     1  UNL1       -0.0679
     11 C         143.9321  141.1624  159.3733 C.2     1  UNL1        0.1887
     12 C         144.0967  142.5586  158.8504 C.2     1  UNL1        0.0395
     13 C         144.0397  142.8181  157.3741 C.2     1  UNL1       -0.0010
     14 C         143.8180  141.6814  156.4208 C.2     1  UNL1       -0.0181
     15 C         143.6533  140.2852  156.9437 C.3     1  UNL1        0.0932
     16 C         143.7104  140.0257  158.4200 C.2     1  UNL1        0.1744
     17 N         143.5827  138.7653  159.2231 N.2     1  UNL1       -0.0718
     18 C         138.7881  137.9942  165.3202 C.3     1  UNL1        0.0768
     19 C         138.1985  139.2682  165.8485 C.3     1  UNL1        0.0437
     20 C         138.6378  143.0892  163.5125 C.ar    1  UNL1        0.0684
     21 C         139.3761  142.9119  164.8061 C.ar    1  UNL1        0.0100
     22 C         139.2297  141.6383  165.5848 C.ar    1  UNL1       -0.0035
     23 C         138.3449  140.5419  165.0698 C.ar    1  UNL1       -0.0207
     24 C         137.6066  140.7191  163.7762 C.ar    1  UNL1       -0.0035
     25 C         137.7531  141.9928  162.9975 C.ar    1  UNL1        0.0100
     26 N         138.9307  145.6365  161.9550 N.1     1  UNL1       -0.1908
     27 C         138.7842  144.3628  162.7338 C.1     1  UNL1        0.1004
@<TRIPOS>BOND
     1    26    27    3
     2    27    20    1
     3    20    21   ar
     4    21    22   ar
     5    22    23   ar
     6    23    19    1
     7    19    18    1
     8    18     1    1
     9     1     2    1
    10     2     3    1
    11     3     4    1
    12     4     7    1
    13     7     9    1
    14     9    10    2
    15    10    11    1
    16    11    12    2
    17    12    13    1
    18    13    14    2
    19    14    15    1
    20    15    16    1
    21    16    17    2
    22     4     5    1
    23     5     6    1
    24    23    24   ar
    25    24    25   ar
    26    25    20   ar
    27     6     1    1
    28    17     9    1
    29    16    11    1
    30     7     8    1
