@<TRIPOS>MOLECULE
*****
 36 39 0 0 0
SMALL
GASTEIGER

@<TRIPOS>ATOM
      1 C         142.0629  138.8147  161.6141 C.ar    1  UNL1        0.2204
      2 N         140.8027  139.2003  160.8977 N.ar    1  UNL1       -0.2089
      3 C         140.6103  138.8181  159.4601 C.ar    1  UNL1        0.1402
      4 C         141.6781  138.0503  158.7388 C.ar    1  UNL1        0.1773
      5 C         142.9383  137.6646  159.4551 C.ar    1  UNL1        0.1402
      6 N         143.1307  138.0469  160.8929 N.ar    1  UNL1       -0.2089
      7 C         140.9853  137.0545  163.7914 C.3     1  UNL1        0.0233
      8 C         141.7165  138.3168  164.1404 C.3     1  UNL1        0.0955
      9 C         141.9089  138.6991  165.5781 C.3     1  UNL1        0.1149
     10 N         142.6401  139.9614  165.9271 N.pl3   1  UNL1       -0.2590
     11 C         143.1789  140.8415  164.8385 C.3     1  UNL1        0.1166
     12 C         142.9865  140.4593  163.4009 C.3     1  UNL1        0.1151
     13 N         142.2553  139.1969  163.0518 N.pl3   1  UNL1       -0.2764
     14 C         142.8325  140.3437  167.3648 C.ar    1  UNL1        0.3120
     15 N         142.8640  139.4010  168.5311 N.ar    1  UNL1       -0.0922
     16 N         143.0781  140.2104  169.7757 N.ar    1  UNL1       -0.1018
     17 C         143.1789  141.6534  169.3786 C.ar    1  UNL1        0.3233
     18 O         143.0271  141.7357  167.8886 O.2     1  UNL1       -0.4012
     19 C         143.3938  142.8108  170.3082 C.3     1  UNL1        0.4711
     20 F         143.6086  143.9682  171.2379 F       1  UNL1       -0.1619
     21 F         144.8738  142.7167  170.0833 F       1  UNL1       -0.1619
     22 F         141.9137  142.9049  170.5331 F       1  UNL1       -0.1619
     23 O         141.4857  137.6681  157.3011 O.3     1  UNL1       -0.4675
     24 C         142.5784  136.9541  156.5621 C.3     1  UNL1        0.2328
     25 C         142.5352  135.4617  156.4176 C.ar    1  UNL1        0.0309
     26 C         143.3855  134.5977  157.3011 C.ar    1  UNL1        0.0013
     27 C         143.3421  133.1053  157.1565 C.ar    1  UNL1        0.0182
     28 C         142.4486  132.4769  156.1286 C.ar    1  UNL1        0.1064
     29 C         141.5983  133.3410  155.2452 C.ar    1  UNL1        0.0284
     30 C         141.6416  134.8333  155.3897 C.ar    1  UNL1        0.0692
     31 S         142.4053  130.9846  155.9841 S.O2    1  UNL1        0.0105
     32 C         142.3620  129.4921  155.8396 C.3     1  UNL1        0.1816
     33 O         141.4027  131.1208  154.8769 O.2     1  UNL1       -0.1686
     34 O         143.4079  130.8483  157.0914 O.2     1  UNL1       -0.1686
     35 C         140.7913  135.6973  154.5062 C.1     1  UNL1        0.1003
     36 N         139.9410  136.5614  153.6228 N.1     1  UNL1       -0.1908
@<TRIPOS>BOND
     1     8     7    1
     2     8     9    1
     3     9    10    1
     4    10    14    1
     5    14    15   ar
     6    15    16   ar
     7    16    17   ar
     8    17    19    1
     9    19    20    1
    10    19    21    1
    11    19    22    1
    12    17    18   ar
    13    10    11    1
    14    11    12    1
    15    12    13    1
    16    13     1    1
    17     1     2   ar
    18     2     3   ar
    19     3     4   ar
    20     4    23    1
    21    23    24    1
    22    24    25    1
    23    25    26   ar
    24    26    27   ar
    25    27    28   ar
    26    28    31    1
    27    31    32    1
    28    31    33    2
    29    31    34    2
    30    28    29   ar
    31    29    30   ar
    32    30    35    1
    33    35    36    3
    34     4     5   ar
    35     5     6   ar
    36    13     8    1
    37     6     1   ar
    38    18    14   ar
    39    30    25   ar
@<TRIPOS>MOLECULE
*****
 36 39 0 0 0
SMALL
GASTEIGER

@<TRIPOS>ATOM
      1 C         140.1371  139.1816  156.7889 C.ar    1  UNL1        0.2204
      2 N         139.2843  137.9480  156.8143 N.ar    1  UNL1       -0.2089
      3 C         139.4684  136.8872  155.7699 C.ar    1  UNL1        0.1402
      4 C         140.5055  137.0601  154.7000 C.ar    1  UNL1        0.1773
      5 C         141.3583  138.2938  154.6745 C.ar    1  UNL1        0.1402
      6 N         141.1741  139.3546  155.7190 N.ar    1  UNL1       -0.2089
      7 C         141.7437  139.0888  159.3208 C.3     1  UNL1        0.0233
      8 C         140.7562  140.1960  159.0993 C.3     1  UNL1        0.0955
      9 C         140.5720  141.2568  160.1437 C.3     1  UNL1        0.1149
     10 N         139.5845  142.3640  159.9221 N.pl3   1  UNL1       -0.2590
     11 C         138.7813  142.4104  158.6562 C.3     1  UNL1        0.1166
     12 C         138.9655  141.3496  157.6118 C.3     1  UNL1        0.1151
     13 N         139.9529  140.2424  157.8334 N.pl3   1  UNL1       -0.2764
     14 C         139.4003  143.4248  160.9666 C.ar    1  UNL1        0.3120
     15 N         139.3858  144.9053  160.7266 N.ar    1  UNL1       -0.0922
     16 N         139.1748  145.5868  162.0461 N.ar    1  UNL1       -0.1018
     17 C         139.0590  144.5273  163.1017 C.ar    1  UNL1        0.3233
     18 O         139.1984  143.1911  162.4345 O.2     1  UNL1       -0.4012
     19 C         138.8419  144.7627  164.5671 C.3     1  UNL1        0.4711
     20 F         138.6249  144.9982  166.0325 F       1  UNL1       -0.1619
     21 F         137.4049  144.3592  164.4191 F       1  UNL1       -0.1619
     22 F         140.2790  145.1663  164.7151 F       1  UNL1       -0.1619
     23 O         140.6896  135.9993  153.6556 O.3     1  UNL1       -0.4675
     24 C         142.0368  135.3714  153.4537 C.3     1  UNL1        0.2328
     25 C         142.5161  134.3058  154.3943 C.ar    1  UNL1        0.0309
     26 C         141.9449  132.9212  154.3128 C.ar    1  UNL1        0.0013
     27 C         142.4243  131.8556  155.2535 C.ar    1  UNL1        0.0182
     28 C         143.4748  132.1746  156.2755 C.ar    1  UNL1        0.1064
     29 C         144.0460  133.5592  156.3570 C.ar    1  UNL1        0.0284
     30 C         143.5667  134.6248  155.4164 C.ar    1  UNL1        0.0692
     31 S         143.9541  131.1090  157.2161 S.O2    1  UNL1        0.0105
     32 C         144.4334  130.0433  158.1567 C.3     1  UNL1        0.1816
     33 O         142.8231  130.2219  156.7874 O.2     1  UNL1       -0.1686
     34 O         145.0851  131.9961  157.6448 O.2     1  UNL1       -0.1686
     35 C         144.1378  136.0094  155.4979 C.1     1  UNL1        0.1003
     36 N         144.7090  137.3940  155.5794 N.1     1  UNL1       -0.1908
@<TRIPOS>BOND
     1     8     7    1
     2     8     9    1
     3     9    10    1
     4    10    14    1
     5    14    15   ar
     6    15    16   ar
     7    16    17   ar
     8    17    19    1
     9    19    20    1
    10    19    21    1
    11    19    22    1
    12    17    18   ar
    13    10    11    1
    14    11    12    1
    15    12    13    1
    16    13     1    1
    17     1     2   ar
    18     2     3   ar
    19     3     4   ar
    20     4    23    1
    21    23    24    1
    22    24    25    1
    23    25    26   ar
    24    26    27   ar
    25    27    28   ar
    26    28    31    1
    27    31    32    1
    28    31    33    2
    29    31    34    2
    30    28    29   ar
    31    29    30   ar
    32    30    35    1
    33    35    36    3
    34     4     5   ar
    35     5     6   ar
    36    13     8    1
    37     6     1   ar
    38    18    14   ar
    39    30    25   ar
@<TRIPOS>MOLECULE
*****
 36 39 0 0 0
SMALL
GASTEIGER

@<TRIPOS>ATOM
      1 C         140.8829  138.5069  160.8634 C.ar    1  UNL1        0.2204
      2 N         139.8233  138.6373  159.8097 N.ar    1  UNL1       -0.2089
      3 C         140.1694  138.4172  158.3669 C.ar    1  UNL1        0.1402
      4 C         141.5750  138.0665  157.9778 C.ar    1  UNL1        0.1773
      5 C         142.6345  137.9360  159.0315 C.ar    1  UNL1        0.1402
      6 N         142.2884  138.1562  160.4744 N.ar    1  UNL1       -0.2089
      7 C         141.1829  141.2332  162.0788 C.3     1  UNL1        0.0233
      8 C         140.6867  140.0902  162.9140 C.3     1  UNL1        0.0955
      9 C         140.3406  140.3103  164.3568 C.3     1  UNL1        0.1149
     10 N         139.8445  139.1673  165.1919 N.pl3   1  UNL1       -0.2590
     11 C         139.6945  137.8042  164.5842 C.3     1  UNL1        0.1166
     12 C         140.0406  137.5841  163.1414 C.3     1  UNL1        0.1151
     13 N         140.5367  138.7271  162.3063 N.pl3   1  UNL1       -0.2764
     14 C         139.4984  139.3875  166.6348 C.ar    1  UNL1        0.3120
     15 N         138.2176  138.9877  167.3052 N.ar    1  UNL1       -0.0922
     16 N         138.3000  139.3993  168.7452 N.ar    1  UNL1       -0.1018
     17 C         139.6318  140.0536  168.9648 C.ar    1  UNL1        0.3233
     18 O         140.3725  140.0463  167.6605 O.2     1  UNL1       -0.4012
     19 C         140.1346  140.6163  170.2612 C.3     1  UNL1        0.4711
     20 F         140.6375  141.1790  171.5575 F       1  UNL1       -0.1619
     21 F         139.1150  141.7135  170.1804 F       1  UNL1       -0.1619
     22 F         141.1543  139.5191  170.3419 F       1  UNL1       -0.1619
     23 O         141.9211  137.8463  156.5350 O.3     1  UNL1       -0.4675
     24 C         143.1167  137.0180  156.1684 C.3     1  UNL1        0.2328
     25 C         142.9954  135.5259  156.0753 C.ar    1  UNL1        0.0309
     26 C         143.3544  134.6693  157.2532 C.ar    1  UNL1        0.0013
     27 C         143.2331  133.1770  157.1600 C.ar    1  UNL1        0.0182
     28 C         142.7528  132.5415  155.8891 C.ar    1  UNL1        0.1064
     29 C         142.3937  133.3981  154.7112 C.ar    1  UNL1        0.0284
     30 C         142.5150  134.8902  154.8043 C.ar    1  UNL1        0.0692
     31 S         142.6315  131.0493  155.7960 S.O2    1  UNL1        0.0105
     32 C         142.5101  129.5571  155.7029 C.3     1  UNL1        0.1816
     33 O         142.3132  131.1664  154.3349 O.2     1  UNL1       -0.1686
     34 O         142.9497  130.9323  157.2572 O.2     1  UNL1       -0.1686
     35 C         142.1560  135.7469  153.6265 C.1     1  UNL1        0.1003
     36 N         141.7970  136.6035  152.4486 N.1     1  UNL1       -0.1908
@<TRIPOS>BOND
     1     8     7    1
     2     8     9    1
     3     9    10    1
     4    10    14    1
     5    14    15   ar
     6    15    16   ar
     7    16    17   ar
     8    17    19    1
     9    19    20    1
    10    19    21    1
    11    19    22    1
    12    17    18   ar
    13    10    11    1
    14    11    12    1
    15    12    13    1
    16    13     1    1
    17     1     2   ar
    18     2     3   ar
    19     3     4   ar
    20     4    23    1
    21    23    24    1
    22    24    25    1
    23    25    26   ar
    24    26    27   ar
    25    27    28   ar
    26    28    31    1
    27    31    32    1
    28    31    33    2
    29    31    34    2
    30    28    29   ar
    31    29    30   ar
    32    30    35    1
    33    35    36    3
    34     4     5   ar
    35     5     6   ar
    36    13     8    1
    37     6     1   ar
    38    18    14   ar
    39    30    25   ar
@<TRIPOS>MOLECULE
*****
 36 39 0 0 0
SMALL
GASTEIGER

@<TRIPOS>ATOM
      1 C         138.9541  141.2443  159.9133 C.ar    1  UNL1        0.2204
      2 N         137.9623  141.3232  161.0359 N.ar    1  UNL1       -0.2089
      3 C         137.7937  140.1623  161.9707 C.ar    1  UNL1        0.1402
      4 C         138.6168  138.9224  161.7828 C.ar    1  UNL1        0.1773
      5 C         139.6085  138.8435  160.6602 C.ar    1  UNL1        0.1402
      6 N         139.7771  140.0045  159.7254 N.ar    1  UNL1       -0.2089
      7 C         137.5708  141.2400  157.2512 C.3     1  UNL1        0.0233
      8 C         138.4310  142.4031  157.6475 C.3     1  UNL1        0.0955
      9 C         138.5997  143.5641  156.7128 C.3     1  UNL1        0.1149
     10 N         139.4599  144.7272  157.1091 N.pl3   1  UNL1       -0.2590
     11 C         140.1516  144.7294  158.4401 C.3     1  UNL1        0.1166
     12 C         139.9829  143.5685  159.3748 C.3     1  UNL1        0.1151
     13 N         139.1227  142.4053  158.9785 N.pl3   1  UNL1       -0.2764
     14 C         139.6285  145.8882  156.1744 C.ar    1  UNL1        0.3120
     15 N         140.4406  145.8941  154.9132 N.ar    1  UNL1       -0.0922
     16 N         140.3286  147.2567  154.2961 N.ar    1  UNL1       -0.1018
     17 C         139.4473  148.0930  155.1759 C.ar    1  UNL1        0.3233
     18 O         139.0146  147.2472  156.3367 O.2     1  UNL1       -0.4012
     19 C         139.0657  149.5238  154.9368 C.3     1  UNL1        0.4711
     20 F         138.6841  150.9546  154.6977 F       1  UNL1       -0.1619
     21 F         138.5184  149.6107  156.3307 F       1  UNL1       -0.1619
     22 F         139.6129  149.4368  153.5429 F       1  UNL1       -0.1619
     23 O         138.4482  137.7615  162.7175 O.3     1  UNL1       -0.4675
     24 C         139.5018  137.4653  163.7433 C.3     1  UNL1        0.2328
     25 C         139.5747  138.2801  165.0005 C.ar    1  UNL1        0.0309
     26 C         138.3698  138.4031  165.8855 C.ar    1  UNL1        0.0013
     27 C         138.4427  139.2180  167.1428 C.ar    1  UNL1        0.0182
     28 C         139.7205  139.9099  167.5150 C.ar    1  UNL1        0.1064
     29 C         140.9253  139.7869  166.6300 C.ar    1  UNL1        0.0284
     30 C         140.8525  138.9721  165.3728 C.ar    1  UNL1        0.0692
     31 S         139.7933  140.7247  168.7722 S.O2    1  UNL1        0.0105
     32 C         139.8662  141.5396  170.0296 C.3     1  UNL1        0.1816
     33 O         138.8579  139.7663  169.4477 O.2     1  UNL1       -0.1686
     34 O         140.7288  141.6832  168.0968 O.2     1  UNL1       -0.1686
     35 C         142.0573  138.8492  164.4878 C.1     1  UNL1        0.1003
     36 N         143.2622  138.7262  163.6028 N.1     1  UNL1       -0.1908
@<TRIPOS>BOND
     1     8     7    1
     2     8     9    1
     3     9    10    1
     4    10    14    1
     5    14    15   ar
     6    15    16   ar
     7    16    17   ar
     8    17    19    1
     9    19    20    1
    10    19    21    1
    11    19    22    1
    12    17    18   ar
    13    10    11    1
    14    11    12    1
    15    12    13    1
    16    13     1    1
    17     1     2   ar
    18     2     3   ar
    19     3     4   ar
    20     4    23    1
    21    23    24    1
    22    24    25    1
    23    25    26   ar
    24    26    27   ar
    25    27    28   ar
    26    28    31    1
    27    31    32    1
    28    31    33    2
    29    31    34    2
    30    28    29   ar
    31    29    30   ar
    32    30    35    1
    33    35    36    3
    34     4     5   ar
    35     5     6   ar
    36    13     8    1
    37     6     1   ar
    38    18    14   ar
    39    30    25   ar
@<TRIPOS>MOLECULE
*****
 36 39 0 0 0
SMALL
GASTEIGER

@<TRIPOS>ATOM
      1 C         138.9997  142.5244  160.1391 C.ar    1  UNL1        0.2204
      2 N         139.7847  141.2560  160.2967 N.ar    1  UNL1       -0.2089
      3 C         139.5018  140.3370  161.4479 C.ar    1  UNL1        0.1402
      4 C         138.4337  140.6863  162.4415 C.ar    1  UNL1        0.1773
      5 C         137.6487  141.9547  162.2840 C.ar    1  UNL1        0.1402
      6 N         137.9317  142.8738  161.1327 N.ar    1  UNL1       -0.2089
      7 C         140.5987  145.0252  160.5741 C.3     1  UNL1        0.0233
      8 C         140.0822  144.6939  159.2054 C.3     1  UNL1        0.0955
      9 C         140.3651  145.6128  158.0541 C.3     1  UNL1        0.1149
     10 N         139.8486  145.2815  156.6854 N.pl3   1  UNL1       -0.2590
     11 C         139.0491  144.0311  156.4679 C.3     1  UNL1        0.1166
     12 C         138.7661  143.1121  157.6192 C.3     1  UNL1        0.1151
     13 N         139.2827  143.4435  158.9879 N.pl3   1  UNL1       -0.2764
     14 C         140.1316  146.2006  155.5342 C.ar    1  UNL1        0.3120
     15 N         141.0383  145.9089  154.3754 N.ar    1  UNL1       -0.0922
     16 N         141.0247  147.1007  153.4647 N.ar    1  UNL1       -0.1018
     17 C         140.1094  148.1290  154.0606 C.ar    1  UNL1        0.3233
     18 O         139.5575  147.5726  155.3396 O.2     1  UNL1       -0.4012
     19 C         139.8004  149.4769  153.4796 C.3     1  UNL1        0.4711
     20 F         139.4913  150.8248  152.8985 F       1  UNL1       -0.1619
     21 F         139.8916  148.9019  152.0972 F       1  UNL1       -0.1619
     22 F         139.7091  150.0519  154.8620 F       1  UNL1       -0.1619
     23 O         138.1508  139.7673  163.5927 O.3     1  UNL1       -0.4675
     24 C         139.2833  139.2082  164.4020 C.3     1  UNL1        0.2328
     25 C         139.8441  139.9940  165.5500 C.ar    1  UNL1        0.0309
     26 C         140.9721  140.9559  165.3206 C.ar    1  UNL1        0.0013
     27 C         141.5329  141.7417  166.4687 C.ar    1  UNL1        0.0182
     28 C         140.9658  141.5656  167.8461 C.ar    1  UNL1        0.1064
     29 C         139.8379  140.6038  168.0756 C.ar    1  UNL1        0.0284
     30 C         139.2770  139.8180  166.9276 C.ar    1  UNL1        0.0692
     31 S         141.5267  142.3514  168.9941 S.O2    1  UNL1        0.0105
     32 C         142.0876  143.1372  170.1422 C.3     1  UNL1        0.1816
     33 O         142.6691  141.3849  169.0975 O.2     1  UNL1       -0.1686
     34 O         140.3842  143.3178  168.8907 O.2     1  UNL1       -0.1686
     35 C         138.1491  138.8562  167.1570 C.1     1  UNL1        0.1003
     36 N         137.0211  137.8943  167.3864 N.1     1  UNL1       -0.1908
@<TRIPOS>BOND
     1     8     7    1
     2     8     9    1
     3     9    10    1
     4    10    14    1
     5    14    15   ar
     6    15    16   ar
     7    16    17   ar
     8    17    19    1
     9    19    20    1
    10    19    21    1
    11    19    22    1
    12    17    18   ar
    13    10    11    1
    14    11    12    1
    15    12    13    1
    16    13     1    1
    17     1     2   ar
    18     2     3   ar
    19     3     4   ar
    20     4    23    1
    21    23    24    1
    22    24    25    1
    23    25    26   ar
    24    26    27   ar
    25    27    28   ar
    26    28    31    1
    27    31    32    1
    28    31    33    2
    29    31    34    2
    30    28    29   ar
    31    29    30   ar
    32    30    35    1
    33    35    36    3
    34     4     5   ar
    35     5     6   ar
    36    13     8    1
    37     6     1   ar
    38    18    14   ar
    39    30    25   ar
@<TRIPOS>MOLECULE
*****
 36 39 0 0 0
SMALL
GASTEIGER

@<TRIPOS>ATOM
      1 C         141.1905  141.4649  159.2595 C.ar    1  UNL1        0.2204
      2 N         139.7995  141.6271  159.7971 N.ar    1  UNL1       -0.2089
      3 C         139.3489  142.9580  160.3222 C.ar    1  UNL1        0.1402
      4 C         140.2892  144.1267  160.3097 C.ar    1  UNL1        0.1773
      5 C         141.6801  143.9644  159.7721 C.ar    1  UNL1        0.1402
      6 N         142.1307  142.6335  159.2470 N.ar    1  UNL1       -0.2089
      7 C         142.5053  139.4935  161.0993 C.3     1  UNL1        0.0233
      8 C         142.2985  139.1483  159.6543 C.3     1  UNL1        0.0955
      9 C         142.7491  137.8175  159.1291 C.3     1  UNL1        0.1149
     10 N         142.5423  137.4723  157.6841 N.pl3   1  UNL1       -0.2590
     11 C         141.8849  138.4580  156.7642 C.3     1  UNL1        0.1166
     12 C         141.4343  139.7888  157.2893 C.3     1  UNL1        0.1151
     13 N         141.6411  140.1340  158.7344 N.pl3   1  UNL1       -0.2764
     14 C         142.9929  136.1414  157.1590 C.ar    1  UNL1        0.3120
     15 N         143.2339  135.7974  155.7190 N.ar    1  UNL1       -0.0922
     16 N         143.6715  134.3643  155.6518 N.ar    1  UNL1       -0.1018
     17 C         143.7010  133.8225  157.0502 C.ar    1  UNL1        0.3233
     18 O         143.2816  134.9208  157.9817 O.2     1  UNL1       -0.4012
     19 C         144.0829  132.4274  157.4474 C.3     1  UNL1        0.4711
     20 F         144.4648  131.0323  157.8446 F       1  UNL1       -0.1619
     21 F         145.3031  132.9584  158.1395 F       1  UNL1       -0.1619
     22 F         142.8627  131.8963  156.7553 F       1  UNL1       -0.1619
     23 O         139.8386  145.4575  160.8348 O.3     1  UNL1       -0.4675
     24 C         140.2050  145.8774  162.2274 C.3     1  UNL1        0.2328
     25 C         140.1660  144.8794  163.3465 C.ar    1  UNL1        0.0309
     26 C         138.8542  144.4987  163.9666 C.ar    1  UNL1        0.0013
     27 C         138.8153  143.5006  165.0857 C.ar    1  UNL1        0.0182
     28 C         140.0880  142.8832  165.5847 C.ar    1  UNL1        0.1064
     29 C         141.3997  143.2639  164.9646 C.ar    1  UNL1        0.0284
     30 C         141.4387  144.2619  163.8455 C.ar    1  UNL1        0.0692
     31 S         140.0489  141.8852  166.7037 S.O2    1  UNL1        0.0105
     32 C         140.0099  140.8870  167.8228 C.3     1  UNL1        0.1816
     33 O         139.2214  140.9660  165.8551 O.2     1  UNL1       -0.1686
     34 O         140.8765  142.8044  167.5524 O.2     1  UNL1       -0.1686
     35 C         142.7504  144.6426  163.2254 C.1     1  UNL1        0.1003
     36 N         144.0621  145.0232  162.6053 N.1     1  UNL1       -0.1908
@<TRIPOS>BOND
     1     8     7    1
     2     8     9    1
     3     9    10    1
     4    10    14    1
     5    14    15   ar
     6    15    16   ar
     7    16    17   ar
     8    17    19    1
     9    19    20    1
    10    19    21    1
    11    19    22    1
    12    17    18   ar
    13    10    11    1
    14    11    12    1
    15    12    13    1
    16    13     1    1
    17     1     2   ar
    18     2     3   ar
    19     3     4   ar
    20     4    23    1
    21    23    24    1
    22    24    25    1
    23    25    26   ar
    24    26    27   ar
    25    27    28   ar
    26    28    31    1
    27    31    32    1
    28    31    33    2
    29    31    34    2
    30    28    29   ar
    31    29    30   ar
    32    30    35    1
    33    35    36    3
    34     4     5   ar
    35     5     6   ar
    36    13     8    1
    37     6     1   ar
    38    18    14   ar
    39    30    25   ar
@<TRIPOS>MOLECULE
*****
 36 39 0 0 0
SMALL
GASTEIGER

@<TRIPOS>ATOM
      1 C         139.0955  141.2570  159.9944 C.ar    1  UNL1        0.2204
      2 N         137.9578  141.2406  160.9719 N.ar    1  UNL1       -0.2089
      3 C         137.7932  140.0832  161.9117 C.ar    1  UNL1        0.1402
      4 C         138.7662  138.9422  161.8740 C.ar    1  UNL1        0.1773
      5 C         139.9038  138.9586  160.8965 C.ar    1  UNL1        0.1402
      6 N         140.0685  140.1161  159.9567 N.ar    1  UNL1       -0.2089
      7 C         140.5931  143.7029  160.8747 C.3     1  UNL1        0.0233
      8 C         140.0089  143.6374  159.4947 C.3     1  UNL1        0.0955
      9 C         140.1735  144.7948  158.5549 C.3     1  UNL1        0.1149
     10 N         139.5893  144.7293  157.1749 N.pl3   1  UNL1       -0.2590
     11 C         138.8405  143.5064  156.7347 C.3     1  UNL1        0.1166
     12 C         138.6759  142.3490  157.6745 C.3     1  UNL1        0.1151
     13 N         139.2601  142.4145  159.0545 N.pl3   1  UNL1       -0.2764
     14 C         139.7539  145.8868  156.2351 C.ar    1  UNL1        0.3120
     15 N         140.6442  145.9230  155.0284 N.ar    1  UNL1       -0.0922
     16 N         140.4977  147.2699  154.3845 N.ar    1  UNL1       -0.1018
     17 C         139.5167  148.0660  155.1933 C.ar    1  UNL1        0.3233
     18 O         139.0571  147.2112  156.3369 O.2     1  UNL1       -0.4012
     19 C         139.0733  149.4703  154.9083 C.3     1  UNL1        0.4711
     20 F         138.6299  150.8747  154.6233 F       1  UNL1       -0.1619
     21 F         138.5497  149.5892  156.3089 F       1  UNL1       -0.1619
     22 F         139.5969  149.3515  153.5077 F       1  UNL1       -0.1619
     23 O         138.6015  137.7848  162.8138 O.3     1  UNL1       -0.4675
     24 C         139.6446  137.5110  163.8565 C.3     1  UNL1        0.2328
     25 C         139.6784  138.3257  165.1155 C.ar    1  UNL1        0.0309
     26 C         138.4384  138.4742  165.9463 C.ar    1  UNL1        0.0013
     27 C         138.4723  139.2890  167.2053 C.ar    1  UNL1        0.0182
     28 C         139.7462  139.9551  167.6335 C.ar    1  UNL1        0.1064
     29 C         140.9862  139.8065  166.8028 C.ar    1  UNL1        0.0284
     30 C         140.9524  138.9919  165.5438 C.ar    1  UNL1        0.0692
     31 S         139.7800  140.7698  168.8925 S.O2    1  UNL1        0.0105
     32 C         139.8139  141.5845  170.1516 C.3     1  UNL1        0.1816
     33 O         140.4691  141.8798  168.1558 O.2     1  UNL1       -0.1686
     34 O         139.0909  139.6597  169.6293 O.2     1  UNL1       -0.1686
     35 C         142.1924  138.8433  164.7130 C.1     1  UNL1        0.1003
     36 N         143.4325  138.6948  163.8822 N.1     1  UNL1       -0.1908
@<TRIPOS>BOND
     1     8     7    1
     2     8     9    1
     3     9    10    1
     4    10    14    1
     5    14    15   ar
     6    15    16   ar
     7    16    17   ar
     8    17    19    1
     9    19    20    1
    10    19    21    1
    11    19    22    1
    12    17    18   ar
    13    10    11    1
    14    11    12    1
    15    12    13    1
    16    13     1    1
    17     1     2   ar
    18     2     3   ar
    19     3     4   ar
    20     4    23    1
    21    23    24    1
    22    24    25    1
    23    25    26   ar
    24    26    27   ar
    25    27    28   ar
    26    28    31    1
    27    31    32    1
    28    31    33    2
    29    31    34    2
    30    28    29   ar
    31    29    30   ar
    32    30    35    1
    33    35    36    3
    34     4     5   ar
    35     5     6   ar
    36    13     8    1
    37     6     1   ar
    38    18    14   ar
    39    30    25   ar
@<TRIPOS>MOLECULE
*****
 36 39 0 0 0
SMALL
GASTEIGER

@<TRIPOS>ATOM
      1 C         143.2802  141.3127  159.9130 C.ar    1  UNL1        0.2204
      2 N         144.3004  141.3419  161.0122 N.ar    1  UNL1       -0.2089
      3 C         144.4086  142.5436  161.9033 C.ar    1  UNL1        0.1402
      4 C         143.4965  143.7162  161.6953 C.ar    1  UNL1        0.1773
      5 C         142.4762  143.6870  160.5961 C.ar    1  UNL1        0.1402
      6 N         142.3681  142.4852  159.7049 N.ar    1  UNL1       -0.2089
      7 C         142.2140  138.7287  161.0022 C.3     1  UNL1        0.0233
      8 C         142.6389  138.8189  159.5665 C.3     1  UNL1        0.0955
      9 C         142.5308  137.6172  158.6754 C.3     1  UNL1        0.1149
     10 N         142.9558  137.7074  157.2396 N.pl3   1  UNL1       -0.2590
     11 C         143.4889  138.9994  156.6951 C.3     1  UNL1        0.1166
     12 C         143.5970  140.2011  157.5862 C.3     1  UNL1        0.1151
     13 N         143.1720  140.1109  159.0219 N.pl3   1  UNL1       -0.2764
     14 C         142.8476  136.5056  156.3485 C.ar    1  UNL1        0.3120
     15 N         142.9787  136.5013  154.8543 N.ar    1  UNL1       -0.0922
     16 N         142.8015  135.0902  154.3775 N.ar    1  UNL1       -0.1018
     17 C         142.5609  134.2223  155.5771 C.ar    1  UNL1        0.3233
     18 O         142.5894  135.0972  156.7952 O.2     1  UNL1       -0.4012
     19 C         142.3319  132.7400  155.5613 C.3     1  UNL1        0.4711
     20 F         142.1030  131.2577  155.5455 F       1  UNL1       -0.1619
     21 F         140.8504  132.9693  155.5126 F       1  UNL1       -0.1619
     22 F         143.8135  132.5107  155.6100 F       1  UNL1       -0.1619
     23 O         143.6047  144.9179  162.5864 O.3     1  UNL1       -0.4675
     24 C         142.5840  145.1491  163.6610 C.3     1  UNL1        0.2328
     25 C         141.6978  144.0245  164.1081 C.ar    1  UNL1        0.0309
     26 C         142.2261  142.9813  165.0475 C.ar    1  UNL1        0.0013
     27 C         141.3398  141.8567  165.4946 C.ar    1  UNL1        0.0182
     28 C         139.9253  141.7753  165.0022 C.ar    1  UNL1        0.1064
     29 C         139.3970  142.8186  164.0628 C.ar    1  UNL1        0.0284
     30 C         140.2832  143.9432  163.6157 C.ar    1  UNL1        0.0692
     31 S         139.0391  140.6508  165.4493 S.O2    1  UNL1        0.0105
     32 C         138.1528  139.5262  165.8964 C.3     1  UNL1        0.1816
     33 O         139.6203  140.7413  166.8291 O.2     1  UNL1       -0.1686
     34 O         138.4578  140.5603  164.0695 O.2     1  UNL1       -0.1686
     35 C         139.7549  144.9864  162.6763 C.1     1  UNL1        0.1003
     36 N         139.2266  146.0296  161.7368 N.1     1  UNL1       -0.1908
@<TRIPOS>BOND
     1     8     7    1
     2     8     9    1
     3     9    10    1
     4    10    14    1
     5    14    15   ar
     6    15    16   ar
     7    16    17   ar
     8    17    19    1
     9    19    20    1
    10    19    21    1
    11    19    22    1
    12    17    18   ar
    13    10    11    1
    14    11    12    1
    15    12    13    1
    16    13     1    1
    17     1     2   ar
    18     2     3   ar
    19     3     4   ar
    20     4    23    1
    21    23    24    1
    22    24    25    1
    23    25    26   ar
    24    26    27   ar
    25    27    28   ar
    26    28    31    1
    27    31    32    1
    28    31    33    2
    29    31    34    2
    30    28    29   ar
    31    29    30   ar
    32    30    35    1
    33    35    36    3
    34     4     5   ar
    35     5     6   ar
    36    13     8    1
    37     6     1   ar
    38    18    14   ar
    39    30    25   ar
@<TRIPOS>MOLECULE
*****
 36 39 0 0 0
SMALL
GASTEIGER

@<TRIPOS>ATOM
      1 C         141.7830  139.2909  160.8478 C.ar    1  UNL1        0.2204
      2 N         142.2649  137.9833  160.2927 N.ar    1  UNL1       -0.2089
      3 C         142.7347  137.8998  158.8707 C.ar    1  UNL1        0.1402
      4 C         142.7227  139.1239  158.0036 C.ar    1  UNL1        0.1773
      5 C         142.2409  140.4314  158.5587 C.ar    1  UNL1        0.1402
      6 N         141.7710  140.5149  159.9809 N.ar    1  UNL1       -0.2089
      7 C         138.8941  138.8172  161.5033 C.3     1  UNL1        0.0233
      8 C         139.8687  139.1375  162.5976 C.3     1  UNL1        0.0955
      9 C         139.3989  139.2210  164.0197 C.3     1  UNL1        0.1149
     10 N         140.3735  139.5414  165.1140 N.pl3   1  UNL1       -0.2590
     11 C         141.8179  139.7782  164.7862 C.3     1  UNL1        0.1166
     12 C         142.2877  139.6947  163.3642 C.3     1  UNL1        0.1151
     13 N         141.3131  139.3744  162.2699 N.pl3   1  UNL1       -0.2764
     14 C         139.9036  139.6249  166.5361 C.ar    1  UNL1        0.3120
     15 N         138.5581  139.2015  167.0464 N.ar    1  UNL1       -0.0922
     16 N         138.5197  139.4614  168.5232 N.ar    1  UNL1       -0.1018
     17 C         139.8415  140.0453  168.9257 C.ar    1  UNL1        0.3233
     18 O         140.6968  140.1464  167.6975 O.2     1  UNL1       -0.4012
     19 C         140.2383  140.4561  170.3127 C.3     1  UNL1        0.4711
     20 F         140.6351  140.8669  171.6997 F       1  UNL1       -0.1619
     21 F         141.1689  139.2825  170.3940 F       1  UNL1       -0.1619
     22 F         139.3077  141.6297  170.2313 F       1  UNL1       -0.1619
     23 O         143.1926  139.0403  156.5816 O.3     1  UNL1       -0.4675
     24 C         142.3966  138.2665  155.5729 C.3     1  UNL1        0.2328
     25 C         142.4814  136.7693  155.5393 C.ar    1  UNL1        0.0309
     26 C         143.8193  136.0926  155.5852 C.ar    1  UNL1        0.0013
     27 C         143.9041  134.5954  155.5516 C.ar    1  UNL1        0.0182
     28 C         142.6510  133.7748  155.4721 C.ar    1  UNL1        0.1064
     29 C         141.3131  134.4514  155.4262 C.ar    1  UNL1        0.0284
     30 C         141.2283  135.9486  155.4598 C.ar    1  UNL1        0.0692
     31 S         142.7359  132.2776  155.4385 S.O2    1  UNL1        0.0105
     32 C         142.8207  130.7803  155.4049 C.3     1  UNL1        0.1816
     33 O         144.2251  132.3584  155.5987 O.2     1  UNL1       -0.1686
     34 O         141.2467  132.1968  155.2783 O.2     1  UNL1       -0.1686
     35 C         139.8903  136.6252  155.4139 C.1     1  UNL1        0.1003
     36 N         138.5524  137.3019  155.3681 N.1     1  UNL1       -0.1908
@<TRIPOS>BOND
     1     8     7    1
     2     8     9    1
     3     9    10    1
     4    10    14    1
     5    14    15   ar
     6    15    16   ar
     7    16    17   ar
     8    17    19    1
     9    19    20    1
    10    19    21    1
    11    19    22    1
    12    17    18   ar
    13    10    11    1
    14    11    12    1
    15    12    13    1
    16    13     1    1
    17     1     2   ar
    18     2     3   ar
    19     3     4   ar
    20     4    23    1
    21    23    24    1
    22    24    25    1
    23    25    26   ar
    24    26    27   ar
    25    27    28   ar
    26    28    31    1
    27    31    32    1
    28    31    33    2
    29    31    34    2
    30    28    29   ar
    31    29    30   ar
    32    30    35    1
    33    35    36    3
    34     4     5   ar
    35     5     6   ar
    36    13     8    1
    37     6     1   ar
    38    18    14   ar
    39    30    25   ar
