@<TRIPOS>MOLECULE
*****
 38 41 0 0 0
SMALL
GASTEIGER

@<TRIPOS>ATOM
      1 O         139.2278  137.7909  157.5983 O.2     1  UNL1       -0.2733
      2 C         140.6185  137.6432  157.0561 C.2     1  UNL1        0.2426
      3 N         141.7989  137.9908  157.9139 N.am    1  UNL1       -0.3018
      4 H         142.7117  137.8939  157.5579 H       1  UNL1        0.1495
      5 C         141.5885  138.4863  159.3140 C.3     1  UNL1        0.1035
      6 C         140.9030  139.6707  159.9283 C.3     1  UNL1        0.0933
      7 N         141.2910  139.1869  161.2941 N.3     1  UNL1       -0.2711
      8 C         141.9765  138.0025  160.6799 C.3     1  UNL1        0.0933
      9 C         141.0807  139.6823  162.6942 C.3     1  UNL1        0.0576
     10 C         142.0571  140.6438  163.3042 C.3     1  UNL1        0.0163
     11 C         141.8467  141.1392  164.7044 C.3     1  UNL1        0.0057
     12 C         140.6599  140.6732  165.4944 C.3     1  UNL1        0.0224
     13 C         139.6834  139.7117  164.8844 C.3     1  UNL1        0.0057
     14 C         139.8938  139.2163  163.4843 C.3     1  UNL1        0.0163
     15 C         140.4495  141.1686  166.8945 C.ar    1  UNL1       -0.0225
     16 C         139.7780  140.2901  167.9080 C.ar    1  UNL1       -0.0042
     17 C         139.5676  140.7856  169.3081 C.ar    1  UNL1        0.0008
     18 C         140.0288  142.1595  169.6947 C.ar    1  UNL1        0.0140
     19 C         140.7003  143.0381  168.6812 C.ar    1  UNL1        0.0008
     20 C         140.9107  142.5427  167.2811 C.ar    1  UNL1       -0.0042
     21 C         139.8184  142.6550  171.0948 C.2     1  UNL1        0.0729
     22 O         140.6570  142.1154  172.2153 O.co2   1  UNL1       -0.5446
     23 O         138.7695  143.6902  171.3744 O.co2   1  UNL1       -0.5446
     24 C         140.8289  137.1478  155.6560 C.3     1  UNL1        0.1759
     25 N         141.2046  135.7156  155.4156 N.am    1  UNL1       -0.2931
     26 C         142.5870  135.2370  155.7471 C.2     1  UNL1        0.2462
     27 O         143.5938  136.1906  156.3189 O.2     1  UNL1       -0.2701
     28 H         140.5438  135.0897  155.0403 H       1  UNL1        0.1502
     29 C         142.9626  133.8048  155.5068 C.ar    1  UNL1        0.0533
     30 C         142.6881  133.1707  154.1754 C.ar    1  UNL1        0.0045
     31 C         143.0637  131.7385  153.9351 C.ar    1  UNL1        0.0001
     32 C         143.7139  130.9405  155.0262 C.ar    1  UNL1        0.0039
     33 C         143.9885  131.5746  156.3575 C.ar    1  UNL1        0.0716
     34 C         143.6128  133.0067  156.5978 C.ar    1  UNL1        0.0084
     35 C         144.6386  130.7766  157.4486 C.3     1  UNL1        0.4186
     36 F         145.2888  129.9785  158.5396 F       1  UNL1       -0.1659
     37 F         145.6417  131.8730  157.6528 F       1  UNL1       -0.1659
     38 F         143.6356  129.6801  157.2444 F       1  UNL1       -0.1659
@<TRIPOS>UNITY_ATOM_ATTR
22 1
charge -1
@<TRIPOS>BOND
     1     1     2    2
     2     2    24    1
     3    24    25    1
     4    25    26   am
     5    26    27    2
     6    26    29    1
     7    29    30   ar
     8    30    31   ar
     9    31    32   ar
    10    32    33   ar
    11    33    35    1
    12    35    36    1
    13    35    37    1
    14    35    38    1
    15    33    34   ar
    16     2     3   am
    17     3     5    1
    18     5     6    1
    19     6     7    1
    20     9     7    1
    21     9    10    1
    22    10    11    1
    23    11    12    1
    24    12    15    1
    25    15    16   ar
    26    16    17   ar
    27    17    18   ar
    28    18    21    1
    29    21    22   ar
    30    21    23   ar
    31    18    19   ar
    32    19    20   ar
    33    12    13    1
    34    13    14    1
    35     7     8    1
    36    34    29   ar
    37     8     5    1
    38    14     9    1
    39    20    15   ar
    40    25    28    1
    41     3     4    1
@<TRIPOS>MOLECULE
*****
 38 41 0 0 0
SMALL
GASTEIGER

@<TRIPOS>ATOM
      1 O         142.5715  139.7098  157.2253 O.2     1  UNL1       -0.2733
      2 C         142.9613  138.2687  157.0793 C.2     1  UNL1        0.2426
      3 N         143.0125  137.3796  158.2863 N.am    1  UNL1       -0.3018
      4 H         143.2683  136.4338  158.1904 H       1  UNL1        0.1495
      5 C         142.6739  137.9316  159.6393 C.3     1  UNL1        0.1035
      6 C         141.4102  138.3619  160.3234 C.3     1  UNL1        0.0933
      7 N         142.1949  138.7122  161.5528 N.3     1  UNL1       -0.2711
      8 C         143.4586  138.2819  160.8688 C.3     1  UNL1        0.0933
      9 C         141.8563  139.2641  162.9058 C.3     1  UNL1        0.0576
     10 C         141.6520  140.7394  163.0843 C.3     1  UNL1        0.0163
     11 C         141.3133  141.2913  164.4374 C.3     1  UNL1        0.0057
     12 C         141.1790  140.3680  165.6119 C.3     1  UNL1        0.0224
     13 C         141.3833  138.8928  165.4333 C.3     1  UNL1        0.0057
     14 C         141.7220  138.3408  164.0804 C.3     1  UNL1        0.0163
     15 C         140.8404  140.9200  166.9649 C.ar    1  UNL1       -0.0225
     16 C         141.3441  142.2734  167.3703 C.ar    1  UNL1       -0.0042
     17 C         141.0054  142.8254  168.7234 C.ar    1  UNL1        0.0008
     18 C         140.1630  142.0239  169.6709 C.ar    1  UNL1        0.0140
     19 C         139.6593  140.6704  169.2655 C.ar    1  UNL1        0.0008
     20 C         139.9979  140.1185  167.9125 C.ar    1  UNL1       -0.0042
     21 C         139.8244  142.5758  171.0240 C.2     1  UNL1        0.0729
     22 O         140.5739  142.1052  172.2350 O.co2   1  UNL1       -0.5446
     23 O         138.7361  143.5983  171.1659 O.co2   1  UNL1       -0.5446
     24 C         143.2999  137.7167  155.7263 C.3     1  UNL1        0.1759
     25 N         143.7089  136.2807  155.5830 N.am    1  UNL1       -0.2931
     26 C         142.6656  135.2036  155.5484 C.2     1  UNL1        0.2462
     27 O         141.2132  135.5625  155.6570 O.2     1  UNL1       -0.2701
     28 H         144.6622  136.0451  155.5118 H       1  UNL1        0.1502
     29 C         143.0746  133.7675  155.4052 C.ar    1  UNL1        0.0533
     30 C         142.8117  133.0373  154.1216 C.ar    1  UNL1        0.0045
     31 C         143.2207  131.6013  153.9783 C.ar    1  UNL1        0.0001
     32 C         143.8926  130.8955  155.1187 C.ar    1  UNL1        0.0039
     33 C         144.1554  131.6257  156.4023 C.ar    1  UNL1        0.0716
     34 C         143.7464  133.0617  156.5455 C.ar    1  UNL1        0.0084
     35 C         144.8272  130.9199  157.5427 C.3     1  UNL1        0.4186
     36 F         145.4990  130.2141  158.6831 F       1  UNL1       -0.1659
     37 F         145.5536  132.1836  157.8969 F       1  UNL1       -0.1659
     38 F         144.1009  129.6562  157.1885 F       1  UNL1       -0.1659
@<TRIPOS>UNITY_ATOM_ATTR
22 1
charge -1
@<TRIPOS>BOND
     1     1     2    2
     2     2    24    1
     3    24    25    1
     4    25    26   am
     5    26    27    2
     6    26    29    1
     7    29    30   ar
     8    30    31   ar
     9    31    32   ar
    10    32    33   ar
    11    33    35    1
    12    35    36    1
    13    35    37    1
    14    35    38    1
    15    33    34   ar
    16     2     3   am
    17     3     5    1
    18     5     6    1
    19     6     7    1
    20     9     7    1
    21     9    10    1
    22    10    11    1
    23    11    12    1
    24    12    15    1
    25    15    16   ar
    26    16    17   ar
    27    17    18   ar
    28    18    21    1
    29    21    22   ar
    30    21    23   ar
    31    18    19   ar
    32    19    20   ar
    33    12    13    1
    34    13    14    1
    35     7     8    1
    36    34    29   ar
    37     8     5    1
    38    14     9    1
    39    20    15   ar
    40    25    28    1
    41     3     4    1
@<TRIPOS>MOLECULE
*****
 38 41 0 0 0
SMALL
GASTEIGER

@<TRIPOS>ATOM
      1 O         140.4027  137.7004  157.5238 O.2     1  UNL1       -0.2733
      2 C         141.8209  137.3763  157.1583 C.2     1  UNL1        0.2426
      3 N         142.9198  137.5872  158.1573 N.am    1  UNL1       -0.3018
      4 H         143.8506  137.3745  157.9174 H       1  UNL1        0.1495
      5 C         142.6005  138.1224  159.5217 C.3     1  UNL1        0.1035
      6 C         142.9831  137.7497  160.9234 C.3     1  UNL1        0.0933
      7 N         142.1490  138.8791  161.4514 N.3     1  UNL1       -0.2711
      8 C         141.7663  139.2517  160.0497 C.3     1  UNL1        0.0933
      9 C         141.8297  139.4141  162.8158 C.3     1  UNL1        0.0576
     10 C         140.6494  138.8817  163.5730 C.3     1  UNL1        0.0163
     11 C         140.3301  139.4168  164.9375 C.3     1  UNL1        0.0057
     12 C         141.1912  140.4843  165.5448 C.3     1  UNL1        0.0224
     13 C         142.3716  141.0168  164.7877 C.3     1  UNL1        0.0057
     14 C         142.6908  140.4817  163.4232 C.3     1  UNL1        0.0163
     15 C         140.8720  141.0194  166.9092 C.ar    1  UNL1       -0.0225
     16 C         141.4484  142.3307  167.3544 C.ar    1  UNL1       -0.0042
     17 C         141.1291  142.8658  168.7189 C.ar    1  UNL1        0.0008
     18 C         140.2334  142.0895  169.6382 C.ar    1  UNL1        0.0140
     19 C         139.6570  140.7781  169.1931 C.ar    1  UNL1        0.0008
     20 C         139.9763  140.2431  167.8286 C.ar    1  UNL1       -0.0042
     21 C         139.9141  142.6245  171.0027 C.2     1  UNL1        0.0729
     22 O         140.5932  142.0511  172.2110 O.co2   1  UNL1       -0.5446
     23 O         138.9157  143.7331  171.1589 O.co2   1  UNL1       -0.5446
     24 C         142.1402  136.8412  155.7939 C.3     1  UNL1        0.1759
     25 N         141.9569  135.3819  155.4988 N.am    1  UNL1       -0.2931
     26 C         142.6244  134.3525  156.3618 C.2     1  UNL1        0.2462
     27 O         143.4751  134.7824  157.5200 O.2     1  UNL1       -0.2701
     28 H         141.3986  135.0998  154.7386 H       1  UNL1        0.1502
     29 C         142.4411  132.8933  156.0667 C.ar    1  UNL1        0.0533
     30 C         143.2919  131.8742  156.7649 C.ar    1  UNL1        0.0045
     31 C         143.1086  130.4151  156.4697 C.ar    1  UNL1        0.0001
     32 C         142.0745  129.9749  155.4763 C.ar    1  UNL1        0.0039
     33 C         141.2236  130.9940  154.7781 C.ar    1  UNL1        0.0716
     34 C         141.4069  132.4532  155.0733 C.ar    1  UNL1        0.0084
     35 C         140.1895  130.5539  153.7847 C.3     1  UNL1        0.4186
     36 F         139.1553  130.1138  152.7913 F       1  UNL1       -0.1659
     37 F         141.1410  130.8493  152.6633 F       1  UNL1       -0.1659
     38 F         139.2380  130.2585  154.9061 F       1  UNL1       -0.1659
@<TRIPOS>UNITY_ATOM_ATTR
22 1
charge -1
@<TRIPOS>BOND
     1     1     2    2
     2     2    24    1
     3    24    25    1
     4    25    26   am
     5    26    27    2
     6    26    29    1
     7    29    30   ar
     8    30    31   ar
     9    31    32   ar
    10    32    33   ar
    11    33    35    1
    12    35    36    1
    13    35    37    1
    14    35    38    1
    15    33    34   ar
    16     2     3   am
    17     3     5    1
    18     5     6    1
    19     6     7    1
    20     9     7    1
    21     9    10    1
    22    10    11    1
    23    11    12    1
    24    12    15    1
    25    15    16   ar
    26    16    17   ar
    27    17    18   ar
    28    18    21    1
    29    21    22   ar
    30    21    23   ar
    31    18    19   ar
    32    19    20   ar
    33    12    13    1
    34    13    14    1
    35     7     8    1
    36    34    29   ar
    37     8     5    1
    38    14     9    1
    39    20    15   ar
    40    25    28    1
    41     3     4    1
@<TRIPOS>MOLECULE
*****
 38 41 0 0 0
SMALL
GASTEIGER

@<TRIPOS>ATOM
      1 O         142.1844  143.8264  156.8300 O.2     1  UNL1       -0.2733
      2 C         140.9065  144.3335  156.2302 C.2     1  UNL1        0.2426
      3 N         139.6781  144.4630  157.0812 N.am    1  UNL1       -0.3018
      4 H         138.8394  144.7958  156.6875 H       1  UNL1        0.1495
      5 C         139.7275  144.0854  158.5321 C.3     1  UNL1        0.1035
      6 C         140.2291  144.7441  159.7829 C.3     1  UNL1        0.0933
      7 N         139.7975  143.5515  160.5839 N.3     1  UNL1       -0.2711
      8 C         139.2959  142.8929  159.3331 C.3     1  UNL1        0.0933
      9 C         139.8470  143.1740  162.0348 C.3     1  UNL1        0.0576
     10 C         141.0203  142.4085  162.5710 C.3     1  UNL1        0.0163
     11 C         141.0697  142.0310  164.0219 C.3     1  UNL1        0.0057
     12 C         139.9459  142.4189  164.9365 C.3     1  UNL1        0.0224
     13 C         138.7726  143.1844  164.4003 C.3     1  UNL1        0.0057
     14 C         138.7232  143.5619  162.9495 C.3     1  UNL1        0.0163
     15 C         139.9954  142.0414  166.3874 C.ar    1  UNL1       -0.0225
     16 C         139.6124  140.6557  166.8153 C.ar    1  UNL1       -0.0042
     17 C         139.6619  140.2782  168.2662 C.ar    1  UNL1        0.0008
     18 C         140.0944  141.2864  169.2891 C.ar    1  UNL1        0.0140
     19 C         140.4774  142.6721  168.8612 C.ar    1  UNL1        0.0008
     20 C         140.4279  143.0496  167.4104 C.ar    1  UNL1       -0.0042
     21 C         140.1438  140.9088  170.7401 C.2     1  UNL1        0.0729
     22 O         139.6295  139.5720  171.1852 O.co2   1  UNL1       -0.5446
     23 O         140.7077  141.8683  171.7458 O.co2   1  UNL1       -0.5446
     24 C         140.8570  144.7111  154.7794 C.3     1  UNL1        0.1759
     25 N         140.9013  146.1559  154.3784 N.am    1  UNL1       -0.2931
     26 C         139.6824  147.0157  154.5361 C.2     1  UNL1        0.2462
     27 O         138.4191  146.4308  155.0946 O.2     1  UNL1       -0.2701
     28 H         141.7304  146.5398  154.0119 H       1  UNL1        0.1502
     29 C         139.7267  148.4605  154.1351 C.ar    1  UNL1        0.0533
     30 C         140.2344  148.8469  152.7776 C.ar    1  UNL1        0.0045
     31 C         140.2787  150.2916  152.3768 C.ar    1  UNL1        0.0001
     32 C         139.8153  151.3500  153.3334 C.ar    1  UNL1        0.0039
     33 C         139.3075  150.9636  154.6909 C.ar    1  UNL1        0.0716
     34 C         139.2632  149.5188  155.0918 C.ar    1  UNL1        0.0084
     35 C         138.8441  152.0219  155.6475 C.3     1  UNL1        0.4186
     36 F         138.3806  153.0803  156.6041 F       1  UNL1       -0.1659
     37 F         139.1651  151.1192  156.8017 F       1  UNL1       -0.1659
     38 F         138.5230  152.9246  154.4933 F       1  UNL1       -0.1659
@<TRIPOS>UNITY_ATOM_ATTR
22 1
charge -1
@<TRIPOS>BOND
     1     1     2    2
     2     2    24    1
     3    24    25    1
     4    25    26   am
     5    26    27    2
     6    26    29    1
     7    29    30   ar
     8    30    31   ar
     9    31    32   ar
    10    32    33   ar
    11    33    35    1
    12    35    36    1
    13    35    37    1
    14    35    38    1
    15    33    34   ar
    16     2     3   am
    17     3     5    1
    18     5     6    1
    19     6     7    1
    20     9     7    1
    21     9    10    1
    22    10    11    1
    23    11    12    1
    24    12    15    1
    25    15    16   ar
    26    16    17   ar
    27    17    18   ar
    28    18    21    1
    29    21    22   ar
    30    21    23   ar
    31    18    19   ar
    32    19    20   ar
    33    12    13    1
    34    13    14    1
    35     7     8    1
    36    34    29   ar
    37     8     5    1
    38    14     9    1
    39    20    15   ar
    40    25    28    1
    41     3     4    1
@<TRIPOS>MOLECULE
*****
 38 41 0 0 0
SMALL
GASTEIGER

@<TRIPOS>ATOM
      1 O         141.1499  139.9951  156.8447 O.2     1  UNL1       -0.2733
      2 C         140.5011  138.6806  156.5267 C.2     1  UNL1        0.2426
      3 N         139.8795  137.8665  157.6225 N.am    1  UNL1       -0.3018
      4 H         139.4537  137.0037  157.4138 H       1  UNL1        0.1495
      5 C         139.9067  138.3669  159.0364 C.3     1  UNL1        0.1035
      6 C         140.9611  138.4974  160.0952 C.3     1  UNL1        0.0933
      7 N         139.9452  139.0746  161.0358 N.3     1  UNL1       -0.2711
      8 C         138.8907  138.9441  159.9770 C.3     1  UNL1        0.0933
      9 C         139.9724  139.5749  162.4496 C.3     1  UNL1        0.0576
     10 C         140.2961  141.0124  162.7303 C.3     1  UNL1        0.0163
     11 C         140.3233  141.5128  164.1442 C.3     1  UNL1        0.0057
     12 C         140.0269  140.5757  165.2773 C.3     1  UNL1        0.0224
     13 C         139.7032  139.1381  164.9965 C.3     1  UNL1        0.0057
     14 C         139.6760  138.6378  163.5828 C.3     1  UNL1        0.0163
     15 C         140.0541  141.0760  166.6911 C.ar    1  UNL1       -0.0225
     16 C         140.5125  142.4741  166.9832 C.ar    1  UNL1       -0.0042
     17 C         140.5397  142.9744  168.3971 C.ar    1  UNL1        0.0008
     18 C         140.1085  142.0767  169.5187 C.ar    1  UNL1        0.0140
     19 C         139.6501  140.6787  169.2266 C.ar    1  UNL1        0.0008
     20 C         139.6229  140.1783  167.8128 C.ar    1  UNL1       -0.0042
     21 C         140.1357  142.5771  170.9326 C.2     1  UNL1        0.0729
     22 O         139.0401  143.4709  171.4331 O.co2   1  UNL1       -0.5446
     23 O         141.2587  142.1836  171.8459 O.co2   1  UNL1       -0.5446
     24 C         140.4739  138.1802  155.1129 C.3     1  UNL1        0.1759
     25 N         140.7351  136.7314  154.8250 N.am    1  UNL1       -0.2931
     26 C         142.1336  136.1935  154.8933 C.2     1  UNL1        0.2462
     27 O         143.2710  137.1042  155.2496 O.2     1  UNL1       -0.2701
     28 H         139.9886  136.1336  154.5911 H       1  UNL1        0.1502
     29 C         142.3949  134.7447  154.6053 C.ar    1  UNL1        0.0533
     30 C         142.0255  134.1667  153.2714 C.ar    1  UNL1        0.0045
     31 C         142.2867  132.7180  152.9834 C.ar    1  UNL1        0.0001
     32 C         142.9173  131.8472  154.0295 C.ar    1  UNL1        0.0039
     33 C         143.2867  132.4252  155.3634 C.ar    1  UNL1        0.0716
     34 C         143.0255  133.8739  155.6513 C.ar    1  UNL1        0.0084
     35 C         143.9173  131.5545  156.4094 C.3     1  UNL1        0.4186
     36 F         144.5479  130.6838  157.4555 F       1  UNL1       -0.1659
     37 F         142.5700  130.9917  156.7532 F       1  UNL1       -0.1659
     38 F         145.2646  132.1173  156.0657 F       1  UNL1       -0.1659
@<TRIPOS>UNITY_ATOM_ATTR
22 1
charge -1
@<TRIPOS>BOND
     1     1     2    2
     2     2    24    1
     3    24    25    1
     4    25    26   am
     5    26    27    2
     6    26    29    1
     7    29    30   ar
     8    30    31   ar
     9    31    32   ar
    10    32    33   ar
    11    33    35    1
    12    35    36    1
    13    35    37    1
    14    35    38    1
    15    33    34   ar
    16     2     3   am
    17     3     5    1
    18     5     6    1
    19     6     7    1
    20     9     7    1
    21     9    10    1
    22    10    11    1
    23    11    12    1
    24    12    15    1
    25    15    16   ar
    26    16    17   ar
    27    17    18   ar
    28    18    21    1
    29    21    22   ar
    30    21    23   ar
    31    18    19   ar
    32    19    20   ar
    33    12    13    1
    34    13    14    1
    35     7     8    1
    36    34    29   ar
    37     8     5    1
    38    14     9    1
    39    20    15   ar
    40    25    28    1
    41     3     4    1
@<TRIPOS>MOLECULE
*****
 38 41 0 0 0
SMALL
GASTEIGER

@<TRIPOS>ATOM
      1 O         138.9218  147.4625  158.0607 O.2     1  UNL1       -0.2733
      2 C         139.5626  146.6367  156.9848 C.2     1  UNL1        0.2426
      3 N         140.1903  145.3177  157.3253 N.am    1  UNL1       -0.3018
      4 H         140.6108  144.7757  156.6191 H       1  UNL1        0.1495
      5 C         140.1773  144.8243  158.7418 C.3     1  UNL1        0.1035
      6 C         139.5605  143.6562  159.4524 C.3     1  UNL1        0.0933
      7 N         140.1589  144.1265  160.7450 N.3     1  UNL1       -0.2711
      8 C         140.7758  145.2946  160.0344 C.3     1  UNL1        0.0933
      9 C         140.1459  143.6330  162.1614 C.3     1  UNL1        0.0576
     10 C         139.0221  144.0152  163.0785 C.3     1  UNL1        0.0163
     11 C         139.0091  143.5217  164.4950 C.3     1  UNL1        0.0057
     12 C         140.1199  142.6462  164.9944 C.3     1  UNL1        0.0224
     13 C         141.2437  142.2640  164.0773 C.3     1  UNL1        0.0057
     14 C         141.2567  142.7574  162.6609 C.3     1  UNL1        0.0163
     15 C         140.1069  142.1528  166.4108 C.ar    1  UNL1       -0.0225
     16 C         140.3842  143.1023  167.5384 C.ar    1  UNL1       -0.0042
     17 C         140.3711  142.6088  168.9549 C.ar    1  UNL1        0.0008
     18 C         140.0808  141.1659  169.2437 C.ar    1  UNL1        0.0140
     19 C         139.8036  140.2163  168.1161 C.ar    1  UNL1        0.0008
     20 C         139.8166  140.7097  166.6997 C.ar    1  UNL1       -0.0042
     21 C         140.0678  140.6724  170.6602 C.2     1  UNL1        0.0729
     22 O         139.3829  139.3815  170.9984 O.co2   1  UNL1       -0.5446
     23 O         140.7397  141.4699  171.7384 O.co2   1  UNL1       -0.5446
     24 C         139.5756  147.1301  155.5683 C.3     1  UNL1        0.1759
     25 N         139.8252  148.5812  155.2817 N.am    1  UNL1       -0.2931
     26 C         140.4418  148.9929  153.9778 C.2     1  UNL1        0.2462
     27 O         140.8088  147.9536  152.9604 O.2     1  UNL1       -0.2701
     28 H         139.5843  149.2633  155.9495 H       1  UNL1        0.1502
     29 C         140.6914  150.4440  153.6913 C.ar    1  UNL1        0.0533
     30 C         139.6402  151.2645  153.0043 C.ar    1  UNL1        0.0045
     31 C         139.8898  152.7155  152.7178 C.ar    1  UNL1        0.0001
     32 C         141.1906  153.3461  153.1182 C.ar    1  UNL1        0.0039
     33 C         142.2418  152.5257  153.8051 C.ar    1  UNL1        0.0716
     34 C         141.9921  151.0746  154.0917 C.ar    1  UNL1        0.0084
     35 C         143.5426  153.1563  154.2055 C.3     1  UNL1        0.4186
     36 F         144.8433  153.7868  154.6059 F       1  UNL1       -0.1659
     37 F         142.9545  154.5166  153.9737 F       1  UNL1       -0.1659
     38 F         144.1306  151.7960  154.4374 F       1  UNL1       -0.1659
@<TRIPOS>UNITY_ATOM_ATTR
22 1
charge -1
@<TRIPOS>BOND
     1     1     2    2
     2     2    24    1
     3    24    25    1
     4    25    26   am
     5    26    27    2
     6    26    29    1
     7    29    30   ar
     8    30    31   ar
     9    31    32   ar
    10    32    33   ar
    11    33    35    1
    12    35    36    1
    13    35    37    1
    14    35    38    1
    15    33    34   ar
    16     2     3   am
    17     3     5    1
    18     5     6    1
    19     6     7    1
    20     9     7    1
    21     9    10    1
    22    10    11    1
    23    11    12    1
    24    12    15    1
    25    15    16   ar
    26    16    17   ar
    27    17    18   ar
    28    18    21    1
    29    21    22   ar
    30    21    23   ar
    31    18    19   ar
    32    19    20   ar
    33    12    13    1
    34    13    14    1
    35     7     8    1
    36    34    29   ar
    37     8     5    1
    38    14     9    1
    39    20    15   ar
    40    25    28    1
    41     3     4    1
@<TRIPOS>MOLECULE
*****
 38 41 0 0 0
SMALL
GASTEIGER

@<TRIPOS>ATOM
      1 O         138.8573  147.8249  157.4922 O.2     1  UNL1       -0.2733
      2 C         139.4019  147.0120  156.3553 C.2     1  UNL1        0.2426
      3 N         140.1827  145.7619  156.6336 N.am    1  UNL1       -0.3018
      4 H         140.5401  145.2283  155.8874 H       1  UNL1        0.1495
      5 C         140.4190  145.3246  158.0489 C.3     1  UNL1        0.1035
      6 C         141.4331  145.6515  159.1047 C.3     1  UNL1        0.0933
      7 N         140.7531  144.7063  160.0504 N.3     1  UNL1       -0.2711
      8 C         139.7390  144.3794  158.9946 C.3     1  UNL1        0.0933
      9 C         140.9894  144.2691  161.4657 C.3     1  UNL1        0.0576
     10 C         140.6223  145.1765  162.6022 C.3     1  UNL1        0.0163
     11 C         140.8586  144.7392  164.0175 C.3     1  UNL1        0.0057
     12 C         141.4621  143.3946  164.2962 C.3     1  UNL1        0.0224
     13 C         141.8292  142.4871  163.1597 C.3     1  UNL1        0.0057
     14 C         141.5929  142.9243  161.7444 C.3     1  UNL1        0.0163
     15 C         141.6984  142.9574  165.7115 C.ar    1  UNL1       -0.0225
     16 C         143.0754  142.5596  166.1536 C.ar    1  UNL1       -0.0042
     17 C         143.3117  142.1224  167.5689 C.ar    1  UNL1        0.0008
     18 C         142.1709  142.0829  168.5420 C.ar    1  UNL1        0.0140
     19 C         140.7938  142.4806  168.0999 C.ar    1  UNL1        0.0008
     20 C         140.5575  142.9178  166.6847 C.ar    1  UNL1       -0.0042
     21 C         142.4072  141.6457  169.9574 C.2     1  UNL1        0.0729
     22 O         141.7048  142.3425  171.0848 O.co2   1  UNL1       -0.5446
     23 O         143.3458  140.5116  170.2452 O.co2   1  UNL1       -0.5446
     24 C         139.1657  147.4492  154.9400 C.3     1  UNL1        0.1759
     25 N         139.9264  148.6133  154.3777 N.am    1  UNL1       -0.2931
     26 C         139.4344  150.0117  154.6064 C.2     1  UNL1        0.2462
     27 O         138.1815  150.2461  155.3973 O.2     1  UNL1       -0.2701
     28 H         140.7487  148.4595  153.8586 H       1  UNL1        0.1502
     29 C         140.1951  151.1759  154.0441 C.ar    1  UNL1        0.0533
     30 C         139.5787  152.0289  152.9753 C.ar    1  UNL1        0.0045
     31 C         140.3395  153.1929  152.4131 C.ar    1  UNL1        0.0001
     32 C         141.7167  153.5040  152.9196 C.ar    1  UNL1        0.0039
     33 C         142.3331  152.6510  153.9884 C.ar    1  UNL1        0.0716
     34 C         141.5723  151.4869  154.5506 C.ar    1  UNL1        0.0084
     35 C         143.7103  152.9620  154.4950 C.3     1  UNL1        0.4186
     36 F         145.0875  153.2731  155.0015 F       1  UNL1       -0.1659
     37 F         144.0579  151.5037  154.4453 F       1  UNL1       -0.1659
     38 F         143.3626  154.4203  154.5447 F       1  UNL1       -0.1659
@<TRIPOS>UNITY_ATOM_ATTR
22 1
charge -1
@<TRIPOS>BOND
     1     1     2    2
     2     2    24    1
     3    24    25    1
     4    25    26   am
     5    26    27    2
     6    26    29    1
     7    29    30   ar
     8    30    31   ar
     9    31    32   ar
    10    32    33   ar
    11    33    35    1
    12    35    36    1
    13    35    37    1
    14    35    38    1
    15    33    34   ar
    16     2     3   am
    17     3     5    1
    18     5     6    1
    19     6     7    1
    20     9     7    1
    21     9    10    1
    22    10    11    1
    23    11    12    1
    24    12    15    1
    25    15    16   ar
    26    16    17   ar
    27    17    18   ar
    28    18    21    1
    29    21    22   ar
    30    21    23   ar
    31    18    19   ar
    32    19    20   ar
    33    12    13    1
    34    13    14    1
    35     7     8    1
    36    34    29   ar
    37     8     5    1
    38    14     9    1
    39    20    15   ar
    40    25    28    1
    41     3     4    1
@<TRIPOS>MOLECULE
*****
 38 41 0 0 0
SMALL
GASTEIGER

@<TRIPOS>ATOM
      1 O         142.1342  140.8328  156.6363 O.2     1  UNL1       -0.2733
      2 C         143.0571  139.7352  156.1964 C.2     1  UNL1        0.2426
      3 N         143.6144  138.7747  157.2047 N.am    1  UNL1       -0.3018
      4 H         144.2201  138.0543  156.9159 H       1  UNL1        0.1495
      5 C         143.2489  138.9117  158.6531 C.3     1  UNL1        0.1035
      6 C         143.6161  139.8617  159.7543 C.3     1  UNL1        0.0933
      7 N         142.7320  139.1057  160.7013 N.3     1  UNL1       -0.2711
      8 C         142.3648  138.1557  159.6001 C.3     1  UNL1        0.0933
      9 C         142.3665  139.2428  162.1496 C.3     1  UNL1        0.0576
     10 C         143.2450  138.6395  163.2052 C.3     1  UNL1        0.0163
     11 C         142.8795  138.7767  164.6535 C.3     1  UNL1        0.0057
     12 C         141.6355  139.5171  165.0462 C.3     1  UNL1        0.0224
     13 C         140.7570  140.1203  163.9906 C.3     1  UNL1        0.0057
     14 C         141.1225  139.9832  162.5423 C.3     1  UNL1        0.0163
     15 C         141.2700  139.6542  166.4945 C.ar    1  UNL1       -0.0225
     16 C         139.8337  139.8225  166.8929 C.ar    1  UNL1       -0.0042
     17 C         139.4683  139.9596  168.3413 C.ar    1  UNL1        0.0008
     18 C         140.5391  139.9284  169.3912 C.ar    1  UNL1        0.0140
     19 C         141.9754  139.7601  168.9928 C.ar    1  UNL1        0.0008
     20 C         142.3409  139.6230  167.5445 C.ar    1  UNL1       -0.0042
     21 C         140.1736  140.0655  170.8395 C.2     1  UNL1        0.0729
     22 O         140.9056  141.0450  171.7083 O.co2   1  UNL1       -0.5446
     23 O         139.0762  139.2231  171.4191 O.co2   1  UNL1       -0.5446
     24 C         143.4226  139.5980  154.7481 C.3     1  UNL1        0.1759
     25 N         144.4358  140.5217  154.1396 N.am    1  UNL1       -0.2931
     26 C         145.6841  140.8686  154.8956 C.2     1  UNL1        0.2462
     27 O         145.9191  140.2917  156.2602 O.2     1  UNL1       -0.2701
     28 H         144.2816  140.9003  153.2440 H       1  UNL1        0.1502
     29 C         146.6973  141.7923  154.2871 C.ar    1  UNL1        0.0533
     30 C         146.2473  142.9490  153.4449 C.ar    1  UNL1        0.0045
     31 C         147.2605  143.8726  152.8364 C.ar    1  UNL1        0.0001
     32 C         148.7237  143.6395  153.0701 C.ar    1  UNL1        0.0039
     33 C         149.1737  142.4827  153.9123 C.ar    1  UNL1        0.0716
     34 C         148.1605  141.5591  154.5208 C.ar    1  UNL1        0.0084
     35 C         150.6369  142.2496  154.1461 C.3     1  UNL1        0.4186
     36 F         152.1002  142.0165  154.3798 F       1  UNL1       -0.1659
     37 F         150.9670  143.3084  153.1361 F       1  UNL1       -0.1659
     38 F         150.3069  141.1908  155.1561 F       1  UNL1       -0.1659
@<TRIPOS>UNITY_ATOM_ATTR
22 1
charge -1
@<TRIPOS>BOND
     1     1     2    2
     2     2    24    1
     3    24    25    1
     4    25    26   am
     5    26    27    2
     6    26    29    1
     7    29    30   ar
     8    30    31   ar
     9    31    32   ar
    10    32    33   ar
    11    33    35    1
    12    35    36    1
    13    35    37    1
    14    35    38    1
    15    33    34   ar
    16     2     3   am
    17     3     5    1
    18     5     6    1
    19     6     7    1
    20     9     7    1
    21     9    10    1
    22    10    11    1
    23    11    12    1
    24    12    15    1
    25    15    16   ar
    26    16    17   ar
    27    17    18   ar
    28    18    21    1
    29    21    22   ar
    30    21    23   ar
    31    18    19   ar
    32    19    20   ar
    33    12    13    1
    34    13    14    1
    35     7     8    1
    36    34    29   ar
    37     8     5    1
    38    14     9    1
    39    20    15   ar
    40    25    28    1
    41     3     4    1
@<TRIPOS>MOLECULE
*****
 38 41 0 0 0
SMALL
GASTEIGER

@<TRIPOS>ATOM
      1 O         142.8410  140.2128  156.9482 O.2     1  UNL1       -0.2733
      2 C         142.8482  138.7701  156.5375 C.2     1  UNL1        0.2426
      3 N         142.6896  137.6952  157.5715 N.am    1  UNL1       -0.3018
      4 H         142.6943  136.7483  157.3020 H       1  UNL1        0.1495
      5 C         142.5239  138.0629  159.0164 C.3     1  UNL1        0.1035
      6 C         141.4236  138.6669  159.8376 C.3     1  UNL1        0.0933
      7 N         142.2895  138.5828  161.0596 N.3     1  UNL1       -0.2711
      8 C         143.3899  137.9788  160.2383 C.3     1  UNL1        0.0933
      9 C         142.1238  138.9505  162.5043 C.3     1  UNL1        0.0576
     10 C         141.7098  137.9085  163.5007 C.3     1  UNL1        0.0163
     11 C         141.5440  138.2762  164.9455 C.3     1  UNL1        0.0057
     12 C         141.7924  139.6859  165.3938 C.3     1  UNL1        0.0224
     13 C         142.2064  140.7279  164.3975 C.3     1  UNL1        0.0057
     14 C         142.3721  140.3603  162.9527 C.3     1  UNL1        0.0163
     15 C         141.6266  140.0536  166.8386 C.ar    1  UNL1       -0.0225
     16 C         140.2589  140.0786  167.4540 C.ar    1  UNL1       -0.0042
     17 C         140.0932  140.4463  168.8988 C.ar    1  UNL1        0.0008
     18 C         141.2952  140.7890  169.7281 C.ar    1  UNL1        0.0140
     19 C         142.6629  140.7639  169.1127 C.ar    1  UNL1        0.0008
     20 C         142.8287  140.3962  167.6680 C.ar    1  UNL1       -0.0042
     21 C         141.1295  141.1567  171.1729 C.2     1  UNL1        0.0729
     22 O         141.8258  142.3656  171.7238 O.co2   1  UNL1       -0.5446
     23 O         140.2675  140.3153  172.0668 O.co2   1  UNL1       -0.5446
     24 C         143.0138  138.4024  155.0928 C.3     1  UNL1        0.1759
     25 N         142.3605  137.1642  154.5543 N.am    1  UNL1       -0.2931
     26 C         142.9996  135.8245  154.7702 C.2     1  UNL1        0.2462
     27 O         144.2920  135.7229  155.5247 O.2     1  UNL1       -0.2701
     28 H         141.5122  137.2308  154.0591 H       1  UNL1        0.1502
     29 C         142.3462  134.5862  154.2318 C.ar    1  UNL1        0.0533
     30 C         141.6521  134.6220  152.9025 C.ar    1  UNL1        0.0045
     31 C         140.9987  133.3837  152.3641 C.ar    1  UNL1        0.0001
     32 C         141.0395  132.1098  153.1549 C.ar    1  UNL1        0.0039
     33 C         141.7336  132.0740  154.4841 C.ar    1  UNL1        0.0716
     34 C         142.3870  133.3123  155.0226 C.ar    1  UNL1        0.0084
     35 C         141.7744  130.8001  155.2749 C.3     1  UNL1        0.4186
     36 F         141.8152  129.5261  156.0657 F       1  UNL1       -0.1659
     37 F         142.7810  131.4097  156.2051 F       1  UNL1       -0.1659
     38 F         140.7679  130.1905  154.3448 F       1  UNL1       -0.1659
@<TRIPOS>UNITY_ATOM_ATTR
22 1
charge -1
@<TRIPOS>BOND
     1     1     2    2
     2     2    24    1
     3    24    25    1
     4    25    26   am
     5    26    27    2
     6    26    29    1
     7    29    30   ar
     8    30    31   ar
     9    31    32   ar
    10    32    33   ar
    11    33    35    1
    12    35    36    1
    13    35    37    1
    14    35    38    1
    15    33    34   ar
    16     2     3   am
    17     3     5    1
    18     5     6    1
    19     6     7    1
    20     9     7    1
    21     9    10    1
    22    10    11    1
    23    11    12    1
    24    12    15    1
    25    15    16   ar
    26    16    17   ar
    27    17    18   ar
    28    18    21    1
    29    21    22   ar
    30    21    23   ar
    31    18    19   ar
    32    19    20   ar
    33    12    13    1
    34    13    14    1
    35     7     8    1
    36    34    29   ar
    37     8     5    1
    38    14     9    1
    39    20    15   ar
    40    25    28    1
    41     3     4    1
