@<TRIPOS>MOLECULE
*****
 30 33 0 0 0
SMALL
GASTEIGER

@<TRIPOS>ATOM
      1 C         138.1954  142.7716  161.9108 C.ar    1  UNL1        0.1553
      2 C         138.6466  142.1871  160.6052 C.ar    1  UNL1        0.1371
      3 N         138.8901  140.7216  160.8128 N.ar    1  UNL1       -0.2193
      4 N         139.3468  139.6381  159.8814 N.ar    1  UNL1       -0.1420
      5 C         139.5027  138.2335  160.3840 C.ar    1  UNL1        0.2225
      6 N         139.2019  137.9123  161.8180 N.ar    1  UNL1       -0.1863
      7 C         138.7452  138.9958  162.7494 C.ar    1  UNL1        0.2487
      8 C         138.5893  140.4004  162.2468 C.ar    1  UNL1        0.1353
      9 C         138.1600  141.6674  162.9254 C.ar    1  UNL1        0.0359
     10 C         137.7646  141.8058  164.3658 C.3     1  UNL1        0.0360
     11 O         137.8417  144.2081  162.1584 O.3     1  UNL1       -0.4715
     12 C         138.9049  145.1816  162.5731 C.3     1  UNL1        0.2370
     13 C         139.6827  144.9503  163.8346 C.3     1  UNL1        0.1838
     14 O         139.0380  145.1891  165.1678 O.3     1  UNL1       -0.3784
     15 H         139.6736  144.9937  165.8740 H       1  UNL1        0.2106
     16 C         141.1054  144.4801  163.7630 C.3     1  UNL1        0.1752
     17 C         143.6398  144.9910  164.0194 C.3     1  UNL1        0.1742
     18 O         142.2281  145.4706  163.8549 O.3     1  UNL1       -0.3484
     19 O         138.4445  138.6746  164.1835 O.3     1  UNL1       -0.4361
     20 C         139.3869  139.1146  165.2642 C.2     1  UNL1        0.1615
     21 C         140.8467  139.2841  164.9632 C.2     1  UNL1        0.0377
     22 C         141.7891  139.7241  166.0439 C.2     1  UNL1        0.0217
     23 C         141.2720  139.9946  167.4257 C.2     1  UNL1        0.0800
     24 N         141.9566  140.4371  168.6849 N.2     1  UNL1       -0.2499
     25 C         140.9200  140.5411  169.7641 C.2     1  UNL1        0.0592
     26 C         141.1656  140.9514  171.1859 C.3     1  UNL1        0.0521
     27 C         139.5948  140.1628  169.1719 C.2     1  UNL1        0.0150
     28 C         139.8123  139.8251  167.7268 C.2     1  UNL1        0.0360
     29 C         138.8698  139.3851  166.6460 C.3     1  UNL1        0.2412
     30 F         137.4101  139.2156  166.9471 F       1  UNL1       -0.2241
@<TRIPOS>BOND
     1    17    18    1
     2    18    16    1
     3    16    13    1
     4    13    14    1
     5    13    12    1
     6    12    11    1
     7    11     1    1
     8     1     2   ar
     9     2     3   ar
    10     3     4   ar
    11     4     5   ar
    12     5     6   ar
    13     6     7   ar
    14     7    19    1
    15    19    20    1
    16    20    21    2
    17    21    22    1
    18    22    23    2
    19    23    24    1
    20    24    25    2
    21    25    26    1
    22    25    27    1
    23    27    28    2
    24    28    29    1
    25    29    30    1
    26     7     8   ar
    27     8     9   ar
    28     9    10    1
    29     9     1   ar
    30     8     3   ar
    31    29    20    1
    32    28    23    1
    33    14    15    1
@<TRIPOS>MOLECULE
*****
 30 33 0 0 0
SMALL
GASTEIGER

@<TRIPOS>ATOM
      1 C         142.5767  139.0356  169.6116 C.ar    1  UNL1        0.1553
      2 C         141.8661  139.6603  170.7755 C.ar    1  UNL1        0.1371
      3 N         141.2625  140.9525  170.3109 N.ar    1  UNL1       -0.2193
      4 N         140.4491  141.9932  171.0217 N.ar    1  UNL1       -0.1420
      5 C         139.9733  143.2079  170.2814 C.ar    1  UNL1        0.2225
      6 N         140.3108  143.3818  168.8302 N.ar    1  UNL1       -0.1863
      7 C         141.1242  142.3411  168.1194 C.ar    1  UNL1        0.2487
      8 C         141.6000  141.1264  168.8598 C.ar    1  UNL1        0.1353
      9 C         142.4122  139.9417  168.4276 C.ar    1  UNL1        0.0359
     10 C         142.9632  139.7048  167.0527 C.3     1  UNL1        0.0360
     11 O         143.3210  137.7334  169.6286 O.3     1  UNL1       -0.4715
     12 C         143.6476  137.0732  170.9353 C.3     1  UNL1        0.2370
     13 C         144.7061  136.0122  170.9957 C.3     1  UNL1        0.1838
     14 O         145.6621  135.8406  169.8526 O.3     1  UNL1       -0.3784
     15 H         146.2769  135.1170  170.0511 H       1  UNL1        0.2106
     16 C         144.8086  135.1226  172.1991 C.3     1  UNL1        0.1752
     17 C         146.8119  135.7566  173.7270 C.3     1  UNL1        0.1742
     18 O         146.1531  134.7983  172.7797 O.3     1  UNL1       -0.3484
     19 O         141.4617  142.5150  166.6683 O.3     1  UNL1       -0.4361
     20 C         140.3891  142.3844  165.6279 C.2     1  UNL1        0.1615
     21 C         139.2630  143.3744  165.5832 C.2     1  UNL1        0.0377
     22 C         138.1904  143.2437  164.5428 C.2     1  UNL1        0.0217
     23 C         138.2438  142.1231  163.5471 C.2     1  UNL1        0.0800
     24 N         137.3362  141.7420  162.4153 N.2     1  UNL1       -0.2499
     25 C         137.9013  140.5164  161.7606 C.2     1  UNL1        0.0592
     26 C         137.3128  139.7940  160.5850 C.3     1  UNL1        0.0521
     27 C         139.1581  140.1401  162.4877 C.2     1  UNL1        0.0150
     28 C         139.3698  141.1331  163.5918 C.2     1  UNL1        0.0360
     29 C         140.4425  141.2637  164.6323 C.3     1  UNL1        0.2412
     30 F         141.5684  140.2737  164.6770 F       1  UNL1       -0.2241
@<TRIPOS>BOND
     1    17    18    1
     2    18    16    1
     3    16    13    1
     4    13    14    1
     5    13    12    1
     6    12    11    1
     7    11     1    1
     8     1     2   ar
     9     2     3   ar
    10     3     4   ar
    11     4     5   ar
    12     5     6   ar
    13     6     7   ar
    14     7    19    1
    15    19    20    1
    16    20    21    2
    17    21    22    1
    18    22    23    2
    19    23    24    1
    20    24    25    2
    21    25    26    1
    22    25    27    1
    23    27    28    2
    24    28    29    1
    25    29    30    1
    26     7     8   ar
    27     8     9   ar
    28     9    10    1
    29     9     1   ar
    30     8     3   ar
    31    29    20    1
    32    28    23    1
    33    14    15    1
@<TRIPOS>MOLECULE
*****
 30 33 0 0 0
SMALL
GASTEIGER

@<TRIPOS>ATOM
      1 C         142.6037  139.3275  169.4259 C.ar    1  UNL1        0.1553
      2 C         142.5900  140.3321  170.5396 C.ar    1  UNL1        0.1371
      3 N         141.7936  141.5187  170.0838 N.ar    1  UNL1       -0.2193
      4 N         141.4423  142.8111  170.7592 N.ar    1  UNL1       -0.1420
      5 C         140.6126  143.8323  170.0391 C.ar    1  UNL1        0.2225
      6 N         140.1341  143.5610  168.6435 N.ar    1  UNL1       -0.1863
      7 C         140.4854  142.2686  167.9682 C.ar    1  UNL1        0.2487
      8 C         141.3151  141.2474  168.6883 C.ar    1  UNL1        0.1353
      9 C         141.8158  139.8932  168.2817 C.ar    1  UNL1        0.0359
     10 C         141.5714  139.2224  166.9625 C.3     1  UNL1        0.0360
     11 O         143.2856  137.9917  169.4517 O.3     1  UNL1       -0.4715
     12 C         143.6146  137.3428  170.7635 C.3     1  UNL1        0.2370
     13 C         144.5335  136.1579  170.8045 C.3     1  UNL1        0.1838
     14 O         145.5156  135.9316  169.6936 O.3     1  UNL1       -0.3784
     15 H         146.0284  135.1282  169.8741 H       1  UNL1        0.2106
     16 C         144.4702  135.1993  171.9565 C.3     1  UNL1        0.1752
     17 C         146.6284  136.2505  172.9499 C.3     1  UNL1        0.1742
     18 O         145.5141  135.2497  173.0324 O.3     1  UNL1       -0.3484
     19 O         140.0069  141.9973  166.5727 O.3     1  UNL1       -0.4361
     20 C         140.7126  142.6184  165.4038 C.2     1  UNL1        0.1615
     21 C         142.2006  142.8049  165.4388 C.2     1  UNL1        0.0377
     22 C         142.9063  143.4259  164.2699 C.2     1  UNL1        0.0217
     23 C         142.1241  143.8605  163.0661 C.2     1  UNL1        0.0800
     24 N         142.5418  144.4978  161.7741 N.2     1  UNL1       -0.2499
     25 C         141.3121  144.7052  160.9406 C.2     1  UNL1        0.0592
     26 C         141.2679  145.3147  159.5706 C.3     1  UNL1        0.0521
     27 C         140.1343  144.1961  161.7175 C.2     1  UNL1        0.0150
     28 C         140.6361  143.6741  163.0311 C.2     1  UNL1        0.0360
     29 C         139.9304  143.0530  164.2000 C.3     1  UNL1        0.2412
     30 F         138.4424  142.8665  164.1649 F       1  UNL1       -0.2241
@<TRIPOS>BOND
     1    17    18    1
     2    18    16    1
     3    16    13    1
     4    13    14    1
     5    13    12    1
     6    12    11    1
     7    11     1    1
     8     1     2   ar
     9     2     3   ar
    10     3     4   ar
    11     4     5   ar
    12     5     6   ar
    13     6     7   ar
    14     7    19    1
    15    19    20    1
    16    20    21    2
    17    21    22    1
    18    22    23    2
    19    23    24    1
    20    24    25    2
    21    25    26    1
    22    25    27    1
    23    27    28    2
    24    28    29    1
    25    29    30    1
    26     7     8   ar
    27     8     9   ar
    28     9    10    1
    29     9     1   ar
    30     8     3   ar
    31    29    20    1
    32    28    23    1
    33    14    15    1
@<TRIPOS>MOLECULE
*****
 30 33 0 0 0
SMALL
GASTEIGER

@<TRIPOS>ATOM
      1 C         142.7297  143.2947  160.8789 C.ar    1  UNL1        0.1553
      2 C         142.7767  142.0927  159.9827 C.ar    1  UNL1        0.1371
      3 N         143.2429  140.9238  160.7990 N.ar    1  UNL1       -0.2193
      4 N         143.4790  139.4848  160.4478 N.ar    1  UNL1       -0.1420
      5 C         143.9562  138.5252  161.4973 C.ar    1  UNL1        0.2225
      6 N         144.1972  139.0047  162.8980 N.ar    1  UNL1       -0.1863
      7 C         143.9611  140.4438  163.2492 C.ar    1  UNL1        0.2487
      8 C         143.4839  141.4033  162.1997 C.ar    1  UNL1        0.1353
      9 C         143.1668  142.8686  162.2490 C.ar    1  UNL1        0.0359
     10 C         143.2688  143.7525  163.4566 C.3     1  UNL1        0.0360
     11 O         142.3179  144.6795  160.4757 O.3     1  UNL1       -0.4715
     12 C         140.8645  145.0483  160.4367 C.3     1  UNL1        0.2370
     13 C         140.1423  145.3872  161.7071 C.3     1  UNL1        0.1838
     14 O         140.2250  146.7754  162.2693 O.3     1  UNL1       -0.3784
     15 H         139.7053  146.8245  163.0869 H       1  UNL1        0.2106
     16 C         139.3376  144.3379  162.4151 C.3     1  UNL1        0.1752
     17 C         138.3363  142.4490  160.9388 C.3     1  UNL1        0.1742
     18 O         138.1590  143.7092  161.7327 O.3     1  UNL1       -0.3484
     19 O         144.2022  140.9233  164.6499 O.3     1  UNL1       -0.4361
     20 C         143.0942  140.8762  165.6599 C.2     1  UNL1        0.1615
     21 C         142.0763  139.7756  165.6058 C.2     1  UNL1        0.0377
     22 C         140.9683  139.7286  166.6158 C.2     1  UNL1        0.0217
     23 C         140.8782  140.7819  167.6799 C.2     1  UNL1        0.0800
     24 N         139.9057  140.9944  168.8020 N.2     1  UNL1       -0.2499
     25 C         140.3226  142.2262  169.5496 C.2     1  UNL1        0.0592
     26 C         139.6308  142.8072  170.7472 C.3     1  UNL1        0.0521
     27 C         141.5527  142.7750  168.8895 C.2     1  UNL1        0.0150
     28 C         141.8960  141.8824  167.7340 C.2     1  UNL1        0.0360
     29 C         143.0040  141.9295  166.7240 C.3     1  UNL1        0.2412
     30 F         144.0219  143.0300  166.7781 F       1  UNL1       -0.2241
@<TRIPOS>BOND
     1    17    18    1
     2    18    16    1
     3    16    13    1
     4    13    14    1
     5    13    12    1
     6    12    11    1
     7    11     1    1
     8     1     2   ar
     9     2     3   ar
    10     3     4   ar
    11     4     5   ar
    12     5     6   ar
    13     6     7   ar
    14     7    19    1
    15    19    20    1
    16    20    21    2
    17    21    22    1
    18    22    23    2
    19    23    24    1
    20    24    25    2
    21    25    26    1
    22    25    27    1
    23    27    28    2
    24    28    29    1
    25    29    30    1
    26     7     8   ar
    27     8     9   ar
    28     9    10    1
    29     9     1   ar
    30     8     3   ar
    31    29    20    1
    32    28    23    1
    33    14    15    1
@<TRIPOS>MOLECULE
*****
 30 33 0 0 0
SMALL
GASTEIGER

@<TRIPOS>ATOM
      1 C         142.0271  140.3593  167.6463 C.ar    1  UNL1        0.1553
      2 C         140.6392  140.9254  167.5901 C.ar    1  UNL1        0.1371
      3 N         139.9359  140.3128  166.4153 N.ar    1  UNL1       -0.2193
      4 N         138.5506  140.4932  165.8691 N.ar    1  UNL1       -0.1420
      5 C         138.1186  139.7289  164.6529 C.ar    1  UNL1        0.2225
      6 N         139.0719  138.7842  163.9829 N.ar    1  UNL1       -0.1863
      7 C         140.4572  138.6039  164.5292 C.ar    1  UNL1        0.2487
      8 C         140.8892  139.3682  165.7454 C.ar    1  UNL1        0.1353
      9 C         142.1816  139.3969  166.5062 C.ar    1  UNL1        0.0359
     10 C         143.4125  138.6027  166.1834 C.3     1  UNL1        0.0360
     11 O         143.0763  140.6965  168.6639 O.3     1  UNL1       -0.4715
     12 C         143.2563  142.1161  169.1135 C.3     1  UNL1        0.2370
     13 C         142.8285  142.5264  170.4914 C.3     1  UNL1        0.1838
     14 O         143.3573  143.7939  171.0946 O.3     1  UNL1       -0.3784
     15 H         142.9840  143.9098  171.9823 H       1  UNL1        0.2106
     16 C         141.8720  141.6692  171.2661 C.3     1  UNL1        0.1752
     17 C         139.6950  142.9836  170.7340 C.3     1  UNL1        0.1742
     18 O         140.5515  142.2283  171.7065 O.3     1  UNL1       -0.3484
     19 O         141.4105  137.6592  163.8593 O.3     1  UNL1       -0.4361
     20 C         142.0571  138.0416  162.5610 C.2     1  UNL1        0.1615
     21 C         143.5013  138.4461  162.5329 C.2     1  UNL1        0.0377
     22 C         144.1480  138.8285  161.2346 C.2     1  UNL1        0.0217
     23 C         143.3505  138.8064  159.9644 C.2     1  UNL1        0.0800
     24 N         143.7140  139.1292  158.5453 N.2     1  UNL1       -0.2499
     25 C         142.4944  138.9242  157.6964 C.2     1  UNL1        0.0592
     26 C         142.4073  139.1322  156.2134 C.3     1  UNL1        0.0521
     27 C         141.3773  138.4747  158.5907 C.2     1  UNL1        0.0150
     28 C         141.9064  138.4019  159.9924 C.2     1  UNL1        0.0360
     29 C         141.2597  138.0194  161.2907 C.3     1  UNL1        0.2412
     30 F         139.8156  137.6149  161.3188 F       1  UNL1       -0.2241
@<TRIPOS>BOND
     1    17    18    1
     2    18    16    1
     3    16    13    1
     4    13    14    1
     5    13    12    1
     6    12    11    1
     7    11     1    1
     8     1     2   ar
     9     2     3   ar
    10     3     4   ar
    11     4     5   ar
    12     5     6   ar
    13     6     7   ar
    14     7    19    1
    15    19    20    1
    16    20    21    2
    17    21    22    1
    18    22    23    2
    19    23    24    1
    20    24    25    2
    21    25    26    1
    22    25    27    1
    23    27    28    2
    24    28    29    1
    25    29    30    1
    26     7     8   ar
    27     8     9   ar
    28     9    10    1
    29     9     1   ar
    30     8     3   ar
    31    29    20    1
    32    28    23    1
    33    14    15    1
@<TRIPOS>MOLECULE
*****
 30 33 0 0 0
SMALL
GASTEIGER

@<TRIPOS>ATOM
      1 C         142.8052  143.6727  161.4578 C.ar    1  UNL1        0.1553
      2 C         143.1548  142.2981  160.9697 C.ar    1  UNL1        0.1371
      3 N         143.6059  141.4882  162.1489 N.ar    1  UNL1       -0.2193
      4 N         144.0719  140.0678  162.2718 N.ar    1  UNL1       -0.1420
      5 C         144.4672  139.5214  163.6116 C.ar    1  UNL1        0.2225
      6 N         144.3965  140.3955  164.8286 N.ar    1  UNL1       -0.1863
      7 C         143.9305  141.8159  164.7057 C.ar    1  UNL1        0.2487
      8 C         143.5352  142.3623  163.3659 C.ar    1  UNL1        0.1353
      9 C         143.0404  143.7124  162.9387 C.ar    1  UNL1        0.0359
     10 C         142.8194  144.8946  163.8352 C.3     1  UNL1        0.0360
     11 O         142.3080  144.8083  160.6133 O.3     1  UNL1       -0.4715
     12 C         140.8359  145.0773  160.5097 C.3     1  UNL1        0.2370
     13 C         140.0561  145.4627  161.7317 C.3     1  UNL1        0.1838
     14 O         140.1875  146.8445  162.3004 O.3     1  UNL1       -0.3784
     15 H         139.6206  146.9272  163.0831 H       1  UNL1        0.2106
     16 C         139.1449  144.4663  162.3851 C.3     1  UNL1        0.1752
     17 C         138.9149  144.7806  164.9538 C.3     1  UNL1        0.1742
     18 O         139.4255  143.9963  163.7816 O.3     1  UNL1       -0.3484
     19 O         143.8598  142.6900  165.9227 O.3     1  UNL1       -0.4361
     20 C         143.0511  142.2586  167.1100 C.2     1  UNL1        0.1615
     21 C         143.5952  142.4442  168.4955 C.2     1  UNL1        0.0377
     22 C         142.7866  142.0127  169.6829 C.2     1  UNL1        0.0217
     23 C         141.4338  141.3956  169.4848 C.2     1  UNL1        0.0800
     24 N         140.4152  140.8772  170.4562 N.2     1  UNL1       -0.2499
     25 C         139.2415  140.3711  169.6711 C.2     1  UNL1        0.0592
     26 C         137.9936  139.7656  170.2423 C.3     1  UNL1        0.0521
     27 C         139.5348  140.5768  168.2145 C.2     1  UNL1        0.0150
     28 C         140.8897  141.2099  168.0994 C.2     1  UNL1        0.0360
     29 C         141.6984  141.6414  166.9120 C.3     1  UNL1        0.2412
     30 F         141.1543  141.4557  165.5265 F       1  UNL1       -0.2241
@<TRIPOS>BOND
     1    17    18    1
     2    18    16    1
     3    16    13    1
     4    13    14    1
     5    13    12    1
     6    12    11    1
     7    11     1    1
     8     1     2   ar
     9     2     3   ar
    10     3     4   ar
    11     4     5   ar
    12     5     6   ar
    13     6     7   ar
    14     7    19    1
    15    19    20    1
    16    20    21    2
    17    21    22    1
    18    22    23    2
    19    23    24    1
    20    24    25    2
    21    25    26    1
    22    25    27    1
    23    27    28    2
    24    28    29    1
    25    29    30    1
    26     7     8   ar
    27     8     9   ar
    28     9    10    1
    29     9     1   ar
    30     8     3   ar
    31    29    20    1
    32    28    23    1
    33    14    15    1
@<TRIPOS>MOLECULE
*****
 30 33 0 0 0
SMALL
GASTEIGER

@<TRIPOS>ATOM
      1 C         139.0054  142.0220  161.4623 C.ar    1  UNL1        0.1553
      2 C         139.5612  140.7498  160.8945 C.ar    1  UNL1        0.1371
      3 N         139.6389  139.7424  162.0031 N.ar    1  UNL1       -0.2193
      4 N         140.1064  138.3175  162.0336 N.ar    1  UNL1       -0.1420
      5 C         140.0661  137.5422  163.3170 C.ar    1  UNL1        0.2225
      6 N         139.5583  138.1918  164.5700 N.ar    1  UNL1       -0.1863
      7 C         139.0907  139.6168  164.5396 C.ar    1  UNL1        0.2487
      8 C         139.1310  140.3920  163.2562 C.ar    1  UNL1        0.1353
      9 C         138.7395  141.8009  162.9219 C.ar    1  UNL1        0.0359
     10 C         138.1803  142.8113  163.8791 C.3     1  UNL1        0.0360
     11 O         138.7587  143.2923  160.7037 O.3     1  UNL1       -0.4715
     12 C         139.8502  144.3131  160.5750 C.3     1  UNL1        0.2370
     13 C         139.9056  145.4753  161.5216 C.3     1  UNL1        0.1838
     14 O         139.1153  146.7169  161.2320 O.3     1  UNL1       -0.3784
     15 H         139.2622  147.3657  161.9379 H       1  UNL1        0.2106
     16 C         140.7513  145.3960  162.7580 C.3     1  UNL1        0.1752
     17 C         142.8689  144.3975  163.8845 C.3     1  UNL1        0.1742
     18 O         142.1728  144.9259  162.6654 O.3     1  UNL1       -0.3484
     19 O         138.5828  140.2664  165.7926 O.3     1  UNL1       -0.4361
     20 C         139.5089  140.4859  166.9520 C.2     1  UNL1        0.1615
     21 C         139.2089  139.8581  168.2809 C.2     1  UNL1        0.0377
     22 C         140.1350  140.0776  169.4402 C.2     1  UNL1        0.0217
     23 C         141.3610  140.9249  169.2708 C.2     1  UNL1        0.0800
     24 N         142.4500  141.3168  170.2250 N.2     1  UNL1       -0.2499
     25 C         143.4231  142.1867  169.4859 C.2     1  UNL1        0.0592
     26 C         144.6657  142.8027  170.0575 C.3     1  UNL1        0.0521
     27 C         142.9355  142.3326  168.0749 C.2     1  UNL1        0.0150
     28 C         141.6611  141.5528  167.9420 C.2     1  UNL1        0.0360
     29 C         140.7350  141.3333  166.7826 C.3     1  UNL1        0.2412
     30 F         141.0350  141.9611  165.4538 F       1  UNL1       -0.2241
@<TRIPOS>BOND
     1    17    18    1
     2    18    16    1
     3    16    13    1
     4    13    14    1
     5    13    12    1
     6    12    11    1
     7    11     1    1
     8     1     2   ar
     9     2     3   ar
    10     3     4   ar
    11     4     5   ar
    12     5     6   ar
    13     6     7   ar
    14     7    19    1
    15    19    20    1
    16    20    21    2
    17    21    22    1
    18    22    23    2
    19    23    24    1
    20    24    25    2
    21    25    26    1
    22    25    27    1
    23    27    28    2
    24    28    29    1
    25    29    30    1
    26     7     8   ar
    27     8     9   ar
    28     9    10    1
    29     9     1   ar
    30     8     3   ar
    31    29    20    1
    32    28    23    1
    33    14    15    1
@<TRIPOS>MOLECULE
*****
 30 33 0 0 0
SMALL
GASTEIGER

@<TRIPOS>ATOM
      1 C         139.1689  142.3457  159.9589 C.ar    1  UNL1        0.1553
      2 C         139.8586  141.1041  159.4766 C.ar    1  UNL1        0.1371
      3 N         139.8086  140.0880  160.5789 N.ar    1  UNL1       -0.2193
      4 N         140.3261  138.6833  160.6734 N.ar    1  UNL1       -0.1420
      5 C         140.1230  137.8923  161.9315 C.ar    1  UNL1        0.2225
      6 N         139.4023  138.5059  163.0951 N.ar    1  UNL1       -0.1863
      7 C         138.8847  139.9106  163.0006 C.ar    1  UNL1        0.2487
      8 C         139.0879  140.7016  161.7425 C.ar    1  UNL1        0.1353
      9 C         138.6926  142.0970  161.3593 C.ar    1  UNL1        0.0359
     10 C         137.9511  143.0723  162.2247 C.3     1  UNL1        0.0360
     11 O         138.9874  143.6134  159.1780 O.3     1  UNL1       -0.4715
     12 C         140.0884  144.6311  159.1335 C.3     1  UNL1        0.2370
     13 C         141.0772  144.7159  160.2582 C.3     1  UNL1        0.1838
     14 O         142.4596  144.1601  160.0850 O.3     1  UNL1       -0.3784
     15 H         142.9671  144.2956  160.9005 H       1  UNL1        0.2106
     16 C         140.6836  145.3565  161.5562 C.3     1  UNL1        0.1752
     17 C         142.0699  145.2769  163.7521 C.3     1  UNL1        0.1742
     18 O         141.0216  144.6876  162.8556 O.3     1  UNL1       -0.3484
     19 O         138.1641  140.5242  164.1643 O.3     1  UNL1       -0.4361
     20 C         138.9412  141.0577  165.3311 C.2     1  UNL1        0.1615
     21 C         139.5236  142.4390  165.2758 C.2     1  UNL1        0.0377
     22 C         140.3007  142.9725  166.4426 C.2     1  UNL1        0.0217
     23 C         140.4956  142.1248  167.6646 C.2     1  UNL1        0.0800
     24 N         141.2092  142.3791  168.9592 N.2     1  UNL1       -0.2499
     25 C         141.0680  141.1550  169.8146 C.2     1  UNL1        0.0592
     26 C         141.6292  140.9736  171.1938 C.3     1  UNL1        0.0521
     27 C         140.2670  140.1442  169.0486 C.2     1  UNL1        0.0150
     28 C         139.9133  140.7436  167.7199 C.2     1  UNL1        0.0360
     29 C         139.1361  140.2100  166.5531 C.3     1  UNL1        0.2412
     30 F         138.5538  138.8288  166.6084 F       1  UNL1       -0.2241
@<TRIPOS>BOND
     1    17    18    1
     2    18    16    1
     3    16    13    1
     4    13    14    1
     5    13    12    1
     6    12    11    1
     7    11     1    1
     8     1     2   ar
     9     2     3   ar
    10     3     4   ar
    11     4     5   ar
    12     5     6   ar
    13     6     7   ar
    14     7    19    1
    15    19    20    1
    16    20    21    2
    17    21    22    1
    18    22    23    2
    19    23    24    1
    20    24    25    2
    21    25    26    1
    22    25    27    1
    23    27    28    2
    24    28    29    1
    25    29    30    1
    26     7     8   ar
    27     8     9   ar
    28     9    10    1
    29     9     1   ar
    30     8     3   ar
    31    29    20    1
    32    28    23    1
    33    14    15    1
@<TRIPOS>MOLECULE
*****
 30 33 0 0 0
SMALL
GASTEIGER

@<TRIPOS>ATOM
      1 C         140.1425  142.2579  161.1829 C.ar    1  UNL1        0.1553
      2 C         140.3449  141.1120  160.2363 C.ar    1  UNL1        0.1371
      3 N         141.5813  140.3750  160.6583 N.ar    1  UNL1       -0.2193
      4 N         142.2682  139.1644  160.0991 N.ar    1  UNL1       -0.1420
      5 C         143.5169  138.6443  160.7472 C.ar    1  UNL1        0.2225
      6 N         144.0787  139.3347  161.9546 N.ar    1  UNL1       -0.1863
      7 C         143.3918  140.5452  162.5138 C.ar    1  UNL1        0.2487
      8 C         142.1432  141.0654  161.8656 C.ar    1  UNL1        0.1353
      9 C         141.2539  142.2291  162.1899 C.ar    1  UNL1        0.0359
     10 C         141.4430  143.1944  163.3223 C.3     1  UNL1        0.0360
     11 O         139.0250  143.2572  161.1315 O.3     1  UNL1       -0.4715
     12 C         137.9301  143.2112  162.1557 C.3     1  UNL1        0.2370
     13 C         137.6359  141.9323  162.8822 C.3     1  UNL1        0.1838
     14 O         136.9881  140.7900  162.1573 O.3     1  UNL1       -0.3784
     15 H         136.8693  140.0454  162.7677 H       1  UNL1        0.2106
     16 C         137.9895  141.7956  164.3335 C.3     1  UNL1        0.1752
     17 C         139.7429  139.9478  164.8446 C.3     1  UNL1        0.1742
     18 O         138.3300  140.4486  164.8989 O.3     1  UNL1       -0.3484
     19 O         143.9537  141.2356  163.7212 O.3     1  UNL1       -0.4361
     20 C         143.5064  140.8285  165.0938 C.2     1  UNL1        0.1615
     21 C         143.2893  139.3789  165.4128 C.2     1  UNL1        0.0377
     22 C         142.8420  138.9719  166.7854 C.2     1  UNL1        0.0217
     23 C         142.6120  140.0143  167.8392 C.2     1  UNL1        0.0800
     24 N         142.1730  139.9153  169.2701 N.2     1  UNL1       -0.2499
     25 C         142.1188  141.3035  169.8355 C.2     1  UNL1        0.0592
     26 C         141.7278  141.6704  171.2364 C.3     1  UNL1        0.0521
     27 C         142.5244  142.2606  168.7540 C.2     1  UNL1        0.0150
     28 C         142.8291  141.4638  167.5203 C.2     1  UNL1        0.0360
     29 C         143.2764  141.8709  166.1476 C.3     1  UNL1        0.2412
     30 F         143.4935  143.3204  165.8287 F       1  UNL1       -0.2241
@<TRIPOS>BOND
     1    17    18    1
     2    18    16    1
     3    16    13    1
     4    13    14    1
     5    13    12    1
     6    12    11    1
     7    11     1    1
     8     1     2   ar
     9     2     3   ar
    10     3     4   ar
    11     4     5   ar
    12     5     6   ar
    13     6     7   ar
    14     7    19    1
    15    19    20    1
    16    20    21    2
    17    21    22    1
    18    22    23    2
    19    23    24    1
    20    24    25    2
    21    25    26    1
    22    25    27    1
    23    27    28    2
    24    28    29    1
    25    29    30    1
    26     7     8   ar
    27     8     9   ar
    28     9    10    1
    29     9     1   ar
    30     8     3   ar
    31    29    20    1
    32    28    23    1
    33    14    15    1
