@<TRIPOS>MOLECULE
*****
 32 34 0 0 0
SMALL
GASTEIGER

@<TRIPOS>ATOM
      1 C         143.8196  141.0487  156.8604 C.3     1  UNL1        0.0161
      2 C         143.9855  141.0347  158.3511 C.3     1  UNL1        0.0462
      3 C         144.5309  142.3973  158.0411 C.3     1  UNL1        0.0161
      4 C         144.3407  141.4940  159.7342 C.3     1  UNL1        0.0412
      5 C         144.0930  140.5956  160.9096 C.ar    1  UNL1       -0.0116
      6 C         143.4899  139.2379  160.7019 C.ar    1  UNL1        0.0174
      7 S         143.3626  138.5773  162.0425 S.2     1  UNL1       -0.0754
      8 C         143.8870  139.5266  163.0788 C.ar    1  UNL1        0.0857
      9 C         144.3384  140.7740  162.3786 C.ar    1  UNL1        0.0691
     10 C         143.1347  138.7787  159.3188 C.3     1  UNL1        0.0665
     11 C         142.7126  137.5757  160.1091 C.3     1  UNL1        0.0208
     12 C         142.6328  137.9017  158.2102 C.3     1  UNL1        0.0208
     13 N         143.3825  139.6771  158.1435 N.3     1  UNL1       -0.2978
     14 H         142.4812  139.8218  157.6883 H       1  UNL1        0.1234
     15 N         143.9490  139.2731  164.5560 N.am    1  UNL1       -0.2629
     16 C         143.0660  140.0488  165.4878 C.2     1  UNL1        0.3085
     17 O         142.1209  141.0782  164.9427 O.2     1  UNL1       -0.2521
     18 N         143.1281  139.7952  166.9649 N.am    1  UNL1       -0.2680
     19 H         144.5693  138.5975  164.9138 H       1  UNL1        0.1569
     20 H         143.7484  139.1196  167.3227 H       1  UNL1        0.1564
     21 C         142.2451  140.5710  167.8969 C.ar    1  UNL1        0.0516
     22 C         142.6909  141.9062  168.4150 C.ar    1  UNL1        0.0156
     23 C         141.8080  142.6819  169.3470 C.ar    1  UNL1        0.0127
     24 C         140.4792  142.1225  169.7607 C.ar    1  UNL1        0.0578
     25 CL        139.5961  142.8982  170.6927 Cl      1  UNL1       -0.0822
     26 C         140.0333  140.7873  169.2426 C.ar    1  UNL1        0.0127
     27 C         140.9163  140.0115  168.3107 C.ar    1  UNL1        0.0156
     28 C         144.9311  141.9869  163.0326 C.2     1  UNL1        0.2442
     29 N         146.2779  141.9031  163.6876 N.am    1  UNL1       -0.3253
     30 O         144.1770  143.2835  163.0315 O.2     1  UNL1       -0.2703
     31 H         146.7728  141.0520  163.6883 H       1  UNL1        0.1453
     32 H         146.6669  142.6991  164.1168 H       1  UNL1        0.1453
@<TRIPOS>BOND
     1     1     2    1
     2     2     3    1
     3     2     4    1
     4     4     5    1
     5     5     6   ar
     6     6     7   ar
     7     7     8   ar
     8     8    15    1
     9    15    16   am
    10    16    17    2
    11    16    18   am
    12    18    21    1
    13    21    22   ar
    14    22    23   ar
    15    23    24   ar
    16    24    25    1
    17    24    26   ar
    18    26    27   ar
    19     8     9   ar
    20     9    28    1
    21    28    29   am
    22    28    30    2
    23     6    10    1
    24    10    11    1
    25    10    12    1
    26    10    13    1
    27    13     2    1
    28     9     5   ar
    29    27    21   ar
    30    15    19    1
    31    18    20    1
    32    29    31    1
    33    29    32    1
    34    13    14    1
@<TRIPOS>MOLECULE
*****
 32 34 0 0 0
SMALL
GASTEIGER

@<TRIPOS>ATOM
      1 C         140.2250  140.6535  168.2885 C.3     1  UNL1        0.0161
      2 C         141.0013  140.2123  167.0831 C.3     1  UNL1        0.0462
      3 C         142.0257  141.0830  167.7483 C.3     1  UNL1        0.0161
      4 C         142.1332  140.0734  166.1088 C.3     1  UNL1        0.0412
      5 C         141.9712  139.2171  164.8880 C.ar    1  UNL1       -0.0116
      6 C         140.6773  138.4996  164.6415 C.ar    1  UNL1        0.0174
      7 S         140.8101  137.7314  163.3599 S.2     1  UNL1       -0.0754
      8 C         142.1861  137.9742  162.8144 C.ar    1  UNL1        0.0857
      9 C         142.9038  138.8924  163.7588 C.ar    1  UNL1        0.0691
     10 C         139.5453  138.6384  165.6158 C.3     1  UNL1        0.0665
     11 C         138.9140  137.7194  164.6123 C.3     1  UNL1        0.0208
     12 C         138.1941  138.4581  166.2416 C.3     1  UNL1        0.0208
     13 N         139.7073  139.4947  166.8366 N.3     1  UNL1       -0.2978
     14 H         139.5471  138.8911  167.6430 H       1  UNL1        0.1234
     15 N         142.7462  137.3996  161.5470 N.am    1  UNL1       -0.2629
     16 C         142.3994  138.0187  160.2255 C.2     1  UNL1        0.3085
     17 O         141.4925  139.2123  160.1713 O.2     1  UNL1       -0.2521
     18 N         142.9594  137.4441  158.9581 N.am    1  UNL1       -0.2680
     19 H         143.3414  136.6162  161.5825 H       1  UNL1        0.1569
     20 H         143.5546  136.6607  158.9937 H       1  UNL1        0.1564
     21 C         142.6126  138.0631  157.6365 C.ar    1  UNL1        0.0516
     22 C         141.5673  137.4331  156.7645 C.ar    1  UNL1        0.0156
     23 C         141.2204  138.0521  155.4429 C.ar    1  UNL1        0.0127
     24 C         141.9190  139.3010  154.9934 C.ar    1  UNL1        0.0578
     25 CL        141.5722  139.9200  153.6718 Cl      1  UNL1       -0.0822
     26 C         142.9643  139.9310  155.8654 C.ar    1  UNL1        0.0127
     27 C         143.3111  139.3120  157.1870 C.ar    1  UNL1        0.0156
     28 C         144.3075  139.3973  163.6016 C.2     1  UNL1        0.2442
     29 N         144.7154  140.0987  162.3401 N.am    1  UNL1       -0.3253
     30 O         145.3033  139.2007  164.7060 O.2     1  UNL1       -0.2703
     31 H         144.0618  140.2278  161.6152 H       1  UNL1        0.1453
     32 H         145.6367  140.4301  162.2369 H       1  UNL1        0.1453
@<TRIPOS>BOND
     1     1     2    1
     2     2     3    1
     3     2     4    1
     4     4     5    1
     5     5     6   ar
     6     6     7   ar
     7     7     8   ar
     8     8    15    1
     9    15    16   am
    10    16    17    2
    11    16    18   am
    12    18    21    1
    13    21    22   ar
    14    22    23   ar
    15    23    24   ar
    16    24    25    1
    17    24    26   ar
    18    26    27   ar
    19     8     9   ar
    20     9    28    1
    21    28    29   am
    22    28    30    2
    23     6    10    1
    24    10    11    1
    25    10    12    1
    26    10    13    1
    27    13     2    1
    28     9     5   ar
    29    27    21   ar
    30    15    19    1
    31    18    20    1
    32    29    31    1
    33    29    32    1
    34    13    14    1
@<TRIPOS>MOLECULE
*****
 32 34 0 0 0
SMALL
GASTEIGER

@<TRIPOS>ATOM
      1 C         142.5285  140.5623  168.5443 C.3     1  UNL1        0.0161
      2 C         142.7380  141.3462  167.2827 C.3     1  UNL1        0.0462
      3 C         142.4259  142.4629  168.2344 C.3     1  UNL1        0.0161
      4 C         142.8391  142.5179  166.3516 C.3     1  UNL1        0.0412
      5 C         143.1796  142.3007  164.9070 C.ar    1  UNL1       -0.0116
      6 C         143.4189  140.9119  164.3935 C.ar    1  UNL1        0.0174
      7 S         143.7353  141.0068  162.9303 S.2     1  UNL1       -0.0754
      8 C         143.6915  142.4544  162.5395 C.ar    1  UNL1        0.0857
      9 C         143.3481  143.2541  163.7612 C.ar    1  UNL1        0.0691
     10 C         143.3177  139.7402  165.3245 C.3     1  UNL1        0.0665
     11 C         143.6649  139.0304  164.0495 C.3     1  UNL1        0.0208
     12 C         143.3372  138.3220  165.8128 C.3     1  UNL1        0.0208
     13 N         142.9773  139.9574  166.7691 N.3     1  UNL1       -0.2978
     14 H         143.7475  139.5704  167.3146 H       1  UNL1        0.1234
     15 N         143.9465  143.0054  161.1679 N.am    1  UNL1       -0.2629
     16 C         142.7954  143.4214  160.3008 C.2     1  UNL1        0.3085
     17 O         141.3892  143.2863  160.8053 O.2     1  UNL1       -0.2521
     18 N         143.0504  143.9724  158.9292 N.am    1  UNL1       -0.2680
     19 H         144.8694  143.0941  160.8367 H       1  UNL1        0.1569
     20 H         143.9733  144.0611  158.5981 H       1  UNL1        0.1564
     21 C         141.8992  144.3884  158.0621 C.ar    1  UNL1        0.0516
     22 C         141.1187  143.3550  157.3051 C.ar    1  UNL1        0.0156
     23 C         139.9676  143.7710  156.4380 C.ar    1  UNL1        0.0127
     24 C         139.5970  145.2202  156.3279 C.ar    1  UNL1        0.0578
     25 CL        138.4458  145.6362  155.4607 Cl      1  UNL1       -0.0822
     26 C         140.3774  146.2536  157.0849 C.ar    1  UNL1        0.0127
     27 C         141.5285  145.8377  157.9520 C.ar    1  UNL1        0.0156
     28 C         143.1993  144.7453  163.8258 C.2     1  UNL1        0.2442
     29 N         142.1482  145.4304  163.0037 N.am    1  UNL1       -0.3253
     30 O         144.1015  145.5513  164.7124 O.2     1  UNL1       -0.2703
     31 H         141.5560  144.9013  162.4218 H       1  UNL1        0.1453
     32 H         142.0505  146.4091  163.0461 H       1  UNL1        0.1453
@<TRIPOS>BOND
     1     1     2    1
     2     2     3    1
     3     2     4    1
     4     4     5    1
     5     5     6   ar
     6     6     7   ar
     7     7     8   ar
     8     8    15    1
     9    15    16   am
    10    16    17    2
    11    16    18   am
    12    18    21    1
    13    21    22   ar
    14    22    23   ar
    15    23    24   ar
    16    24    25    1
    17    24    26   ar
    18    26    27   ar
    19     8     9   ar
    20     9    28    1
    21    28    29   am
    22    28    30    2
    23     6    10    1
    24    10    11    1
    25    10    12    1
    26    10    13    1
    27    13     2    1
    28     9     5   ar
    29    27    21   ar
    30    15    19    1
    31    18    20    1
    32    29    31    1
    33    29    32    1
    34    13    14    1
@<TRIPOS>MOLECULE
*****
 32 34 0 0 0
SMALL
GASTEIGER

@<TRIPOS>ATOM
      1 C         139.5430  139.4329  166.8829 C.3     1  UNL1        0.0161
      2 C         139.5538  140.4904  165.8191 C.3     1  UNL1        0.0462
      3 C         138.1240  140.0456  165.7299 C.3     1  UNL1        0.0161
      4 C         139.0680  141.3933  164.7243 C.3     1  UNL1        0.0412
      5 C         140.0082  142.3738  164.0882 C.ar    1  UNL1       -0.0116
      6 C         141.4342  142.4513  164.5469 C.ar    1  UNL1        0.0174
      7 S         142.1243  143.5095  163.7382 S.2     1  UNL1       -0.0754
      8 C         141.1248  144.0860  162.7797 C.ar    1  UNL1        0.0857
      9 C         139.8169  143.3841  162.9960 C.ar    1  UNL1        0.0691
     10 C         141.9200  141.5484  165.6417 C.3     1  UNL1        0.0665
     11 C         143.1810  142.3067  165.3507 C.3     1  UNL1        0.0208
     12 C         142.8437  140.9087  166.6354 C.3     1  UNL1        0.0208
     13 N         140.9798  140.5679  166.2778 N.3     1  UNL1       -0.2978
     14 H         140.9572  140.7854  167.2740 H       1  UNL1        0.1234
     15 N         141.3872  145.1734  161.7803 N.am    1  UNL1       -0.2629
     16 C         141.2933  144.8813  160.3121 C.2     1  UNL1        0.3085
     17 O         140.9371  143.5018  159.8431 O.2     1  UNL1       -0.2521
     18 N         141.5557  145.9688  159.3128 N.am    1  UNL1       -0.2680
     19 H         141.6210  146.0789  162.0881 H       1  UNL1        0.1569
     20 H         141.7895  146.8742  159.6206 H       1  UNL1        0.1564
     21 C         141.4619  145.6767  157.8445 C.ar    1  UNL1        0.0516
     22 C         140.3130  146.2154  157.0445 C.ar    1  UNL1        0.0156
     23 C         140.2192  145.9234  155.5763 C.ar    1  UNL1        0.0127
     24 C         141.2742  145.0926  154.9079 C.ar    1  UNL1        0.0578
     25 CL        141.1803  144.8005  153.4396 Cl      1  UNL1       -0.0822
     26 C         142.4230  144.5538  155.7079 C.ar    1  UNL1        0.0127
     27 C         142.5169  144.8459  157.1761 C.ar    1  UNL1        0.0156
     28 C         138.5417  143.6464  162.2510 C.2     1  UNL1        0.2442
     29 N         138.2227  142.8640  161.0116 N.am    1  UNL1       -0.3253
     30 O         137.5856  144.6911  162.7453 O.2     1  UNL1       -0.2703
     31 H         138.8503  142.1783  160.6872 H       1  UNL1        0.1453
     32 H         137.3858  143.0361  160.5226 H       1  UNL1        0.1453
@<TRIPOS>BOND
     1     1     2    1
     2     2     3    1
     3     2     4    1
     4     4     5    1
     5     5     6   ar
     6     6     7   ar
     7     7     8   ar
     8     8    15    1
     9    15    16   am
    10    16    17    2
    11    16    18   am
    12    18    21    1
    13    21    22   ar
    14    22    23   ar
    15    23    24   ar
    16    24    25    1
    17    24    26   ar
    18    26    27   ar
    19     8     9   ar
    20     9    28    1
    21    28    29   am
    22    28    30    2
    23     6    10    1
    24    10    11    1
    25    10    12    1
    26    10    13    1
    27    13     2    1
    28     9     5   ar
    29    27    21   ar
    30    15    19    1
    31    18    20    1
    32    29    31    1
    33    29    32    1
    34    13    14    1
@<TRIPOS>MOLECULE
*****
 32 34 0 0 0
SMALL
GASTEIGER

@<TRIPOS>ATOM
      1 C         138.9576  140.3132  169.8762 C.3     1  UNL1        0.0161
      2 C         139.6592  140.6356  168.5901 C.3     1  UNL1        0.0462
      3 C         140.3528  141.5938  169.5125 C.3     1  UNL1        0.0161
      4 C         140.6016  141.2907  167.6244 C.3     1  UNL1        0.0412
      5 C         140.6067  140.8757  166.1830 C.ar    1  UNL1       -0.0116
      6 C         139.6694  139.8057  165.7072 C.ar    1  UNL1        0.0174
      7 S         139.9001  139.6069  164.2385 S.2     1  UNL1       -0.0754
      8 C         140.9800  140.5541  163.8064 C.ar    1  UNL1        0.0857
      9 C         141.4167  141.3383  165.0082 C.ar    1  UNL1        0.0691
     10 C         138.7270  139.1506  166.6729 C.3     1  UNL1        0.0665
     11 C         138.3606  138.4199  165.4152 C.3     1  UNL1        0.0208
     12 C         137.6573  138.2417  167.2018 C.3     1  UNL1        0.0208
     13 N         138.7219  139.5655  168.1144 N.3     1  UNL1       -0.2978
     14 H         138.9268  138.7298  168.6621 H       1  UNL1        0.1234
     15 N         141.5271  140.6927  162.4166 N.am    1  UNL1       -0.2629
     16 C         141.0818  141.8296  161.5453 C.2     1  UNL1        0.3085
     17 O         140.0895  142.8278  162.0637 O.2     1  UNL1       -0.2521
     18 N         141.6289  141.9682  160.1555 N.am    1  UNL1       -0.2680
     19 H         142.1784  140.0376  162.0764 H       1  UNL1        0.1569
     20 H         142.2802  141.3130  159.8153 H       1  UNL1        0.1564
     21 C         141.1837  143.1050  159.2841 C.ar    1  UNL1        0.0516
     22 C         140.0273  142.9228  158.3462 C.ar    1  UNL1        0.0156
     23 C         139.5821  144.0596  157.4748 C.ar    1  UNL1        0.0127
     24 C         140.2931  145.3786  157.5413 C.ar    1  UNL1        0.0578
     25 CL        139.8479  146.5155  156.6698 Cl      1  UNL1       -0.0822
     26 C         141.4495  145.5609  158.4792 C.ar    1  UNL1        0.0127
     27 C         141.8947  144.4241  159.3506 C.ar    1  UNL1        0.0156
     28 C         142.4772  142.3989  165.0312 C.2     1  UNL1        0.2442
     29 N         142.2397  143.7120  164.3461 N.am    1  UNL1       -0.3253
     30 O         143.7752  142.1464  165.7394 O.2     1  UNL1       -0.2703
     31 H         141.3878  143.8777  163.8813 H       1  UNL1        0.1453
     32 H         142.9358  144.4081  164.3612 H       1  UNL1        0.1453
@<TRIPOS>BOND
     1     1     2    1
     2     2     3    1
     3     2     4    1
     4     4     5    1
     5     5     6   ar
     6     6     7   ar
     7     7     8   ar
     8     8    15    1
     9    15    16   am
    10    16    17    2
    11    16    18   am
    12    18    21    1
    13    21    22   ar
    14    22    23   ar
    15    23    24   ar
    16    24    25    1
    17    24    26   ar
    18    26    27   ar
    19     8     9   ar
    20     9    28    1
    21    28    29   am
    22    28    30    2
    23     6    10    1
    24    10    11    1
    25    10    12    1
    26    10    13    1
    27    13     2    1
    28     9     5   ar
    29    27    21   ar
    30    15    19    1
    31    18    20    1
    32    29    31    1
    33    29    32    1
    34    13    14    1
@<TRIPOS>MOLECULE
*****
 32 34 0 0 0
SMALL
GASTEIGER

@<TRIPOS>ATOM
      1 C         141.8518  129.7915  155.3605 C.3     1  UNL1        0.0161
      2 C         141.7297  131.2854  155.4195 C.3     1  UNL1        0.0462
      3 C         140.5884  130.9668  154.4997 C.3     1  UNL1        0.0161
      4 C         141.2112  132.6686  155.1590 C.3     1  UNL1        0.0412
      5 C         141.8765  133.8516  155.7977 C.ar    1  UNL1       -0.0116
      6 C         143.0601  133.6513  156.6970 C.ar    1  UNL1        0.0174
      7 S         143.5065  134.9986  157.1826 S.2     1  UNL1       -0.0754
      8 C         142.5986  136.0314  156.5834 C.ar    1  UNL1        0.0857
      9 C         141.5912  135.3226  155.7275 C.ar    1  UNL1        0.0691
     10 C         143.5786  132.2681  156.9575 C.3     1  UNL1        0.0665
     11 C         144.5398  133.0670  157.7869 C.3     1  UNL1        0.0208
     12 C         144.4309  131.1624  157.5061 C.3     1  UNL1        0.0208
     13 N         142.9134  131.0852  156.3188 N.3     1  UNL1       -0.2978
     14 H         142.6075  130.4746  157.0765 H       1  UNL1        0.1234
     15 N         142.6834  137.5131  156.8019 N.am    1  UNL1       -0.2629
     16 C         143.8096  138.2972  156.1964 C.2     1  UNL1        0.3085
     17 O         144.8511  137.5998  155.3724 O.2     1  UNL1       -0.2521
     18 N         143.8943  139.7788  156.4148 N.am    1  UNL1       -0.2680
     19 H         141.9998  137.9708  157.3426 H       1  UNL1        0.1569
     20 H         143.2107  140.2365  156.9556 H       1  UNL1        0.1564
     21 C         145.0206  140.5630  155.8093 C.ar    1  UNL1        0.0516
     22 C         145.9186  141.3847  156.6859 C.ar    1  UNL1        0.0156
     23 C         147.0448  142.1689  156.0804 C.ar    1  UNL1        0.0127
     24 C         147.2730  142.1315  154.5984 C.ar    1  UNL1        0.0578
     25 CL        148.3993  142.9157  153.9929 Cl      1  UNL1       -0.0822
     26 C         146.3750  141.3098  153.7218 C.ar    1  UNL1        0.0127
     27 C         145.2488  140.5256  154.3272 C.ar    1  UNL1        0.0156
     28 C         140.4916  135.9708  154.9397 C.2     1  UNL1        0.2442
     29 N         139.3247  136.5901  155.6501 N.am    1  UNL1       -0.3253
     30 O         140.5590  135.9998  153.4415 O.2     1  UNL1       -0.2703
     31 H         139.2805  136.5711  156.6334 H       1  UNL1        0.1453
     32 H         138.6030  137.0156  155.1330 H       1  UNL1        0.1453
@<TRIPOS>BOND
     1     1     2    1
     2     2     3    1
     3     2     4    1
     4     4     5    1
     5     5     6   ar
     6     6     7   ar
     7     7     8   ar
     8     8    15    1
     9    15    16   am
    10    16    17    2
    11    16    18   am
    12    18    21    1
    13    21    22   ar
    14    22    23   ar
    15    23    24   ar
    16    24    25    1
    17    24    26   ar
    18    26    27   ar
    19     8     9   ar
    20     9    28    1
    21    28    29   am
    22    28    30    2
    23     6    10    1
    24    10    11    1
    25    10    12    1
    26    10    13    1
    27    13     2    1
    28     9     5   ar
    29    27    21   ar
    30    15    19    1
    31    18    20    1
    32    29    31    1
    33    29    32    1
    34    13    14    1
@<TRIPOS>MOLECULE
*****
 32 34 0 0 0
SMALL
GASTEIGER

@<TRIPOS>ATOM
      1 C         140.1703  140.3420  167.8935 C.3     1  UNL1        0.0161
      2 C         139.8933  141.1270  166.6457 C.3     1  UNL1        0.0462
      3 C         140.3464  142.2320  167.5534 C.3     1  UNL1        0.0161
      4 C         139.7736  142.2958  165.7131 C.3     1  UNL1        0.0412
      5 C         139.2970  142.0870  164.3062 C.ar    1  UNL1       -0.0116
      6 C         138.9401  140.7095  163.8319 C.ar    1  UNL1        0.0174
      7 S         138.5025  140.8110  162.4008 S.2     1  UNL1       -0.0754
      8 C         138.5889  142.2512  161.9906 C.ar    1  UNL1        0.0857
      9 C         139.0799  143.0399  163.1682 C.ar    1  UNL1        0.0691
     10 C         139.0598  139.5408  164.7644 C.3     1  UNL1        0.0665
     11 C         138.5652  138.8417  163.5329 C.3     1  UNL1        0.0208
     12 C         139.0077  138.1292  165.2693 C.3     1  UNL1        0.0208
     13 N         139.5364  139.7495  166.1713 N.3     1  UNL1       -0.2978
     14 H         140.3694  139.1727  166.2887 H       1  UNL1        0.1234
     15 N         138.2446  142.8055  160.6399 N.am    1  UNL1       -0.2629
     16 C         139.3337  143.1111  159.6548 C.2     1  UNL1        0.3085
     17 O         140.7671  142.8624  160.0203 O.2     1  UNL1       -0.2521
     18 N         138.9894  143.6653  158.3042 N.am    1  UNL1       -0.2680
     19 H         137.3038  142.9687  160.4000 H       1  UNL1        0.1569
     20 H         138.0486  143.8285  158.0643 H       1  UNL1        0.1564
     21 C         140.0785  143.9709  157.3190 C.ar    1  UNL1        0.0516
     22 C         140.4801  142.9436  156.3024 C.ar    1  UNL1        0.0156
     23 C         141.5692  143.2492  155.3172 C.ar    1  UNL1        0.0127
     24 C         142.2566  144.5820  155.3487 C.ar    1  UNL1        0.0578
     25 CL        143.3457  144.8876  154.3635 Cl      1  UNL1       -0.0822
     26 C         141.8550  145.6092  156.3653 C.ar    1  UNL1        0.0127
     27 C         140.7660  145.3037  157.3504 C.ar    1  UNL1        0.0156
     28 C         139.3130  144.5213  163.2020 C.2     1  UNL1        0.2442
     29 N         140.2639  145.1083  164.2026 N.am    1  UNL1       -0.3253
     30 O         138.5950  145.4157  162.2353 O.2     1  UNL1       -0.2703
     31 H         140.7351  144.5212  164.8371 H       1  UNL1        0.1453
     32 H         140.4169  146.0806  164.2247 H       1  UNL1        0.1453
@<TRIPOS>BOND
     1     1     2    1
     2     2     3    1
     3     2     4    1
     4     4     5    1
     5     5     6   ar
     6     6     7   ar
     7     7     8   ar
     8     8    15    1
     9    15    16   am
    10    16    17    2
    11    16    18   am
    12    18    21    1
    13    21    22   ar
    14    22    23   ar
    15    23    24   ar
    16    24    25    1
    17    24    26   ar
    18    26    27   ar
    19     8     9   ar
    20     9    28    1
    21    28    29   am
    22    28    30    2
    23     6    10    1
    24    10    11    1
    25    10    12    1
    26    10    13    1
    27    13     2    1
    28     9     5   ar
    29    27    21   ar
    30    15    19    1
    31    18    20    1
    32    29    31    1
    33    29    32    1
    34    13    14    1
@<TRIPOS>MOLECULE
*****
 32 34 0 0 0
SMALL
GASTEIGER

@<TRIPOS>ATOM
      1 C         140.7130  146.0274  155.5371 C.3     1  UNL1        0.0161
      2 C         140.7446  145.6111  156.9779 C.3     1  UNL1        0.0462
      3 C         139.6921  146.6782  157.0381 C.3     1  UNL1        0.0161
      4 C         140.4107  145.5654  158.4395 C.3     1  UNL1        0.0412
      5 C         141.1183  144.5972  159.3406 C.ar    1  UNL1       -0.0116
      6 C         142.1598  143.6747  158.7801 C.ar    1  UNL1        0.0174
      7 S         142.6868  142.8330  159.9042 S.2     1  UNL1       -0.0754
      8 C         141.9710  143.2352  161.1595 C.ar    1  UNL1        0.0857
      9 C         141.0016  144.3256  160.8112 C.ar    1  UNL1        0.0691
     10 C         142.4937  143.7204  157.3184 C.3     1  UNL1        0.0665
     11 C         143.4303  142.6375  157.7658 C.3     1  UNL1        0.0208
     12 C         143.1529  143.3900  156.0122 C.3     1  UNL1        0.0208
     13 N         141.7861  144.6886  156.4174 N.3     1  UNL1       -0.2978
     14 H         141.3300  144.1359  155.6915 H       1  UNL1        0.1234
     15 N         142.1867  142.6498  162.5237 N.am    1  UNL1       -0.2629
     16 C         141.1995  141.6692  163.0837 C.2     1  UNL1        0.3085
     17 O         139.9965  141.2739  162.2797 O.2     1  UNL1       -0.2521
     18 N         141.4153  141.0839  164.4478 N.am    1  UNL1       -0.2680
     19 H         142.9763  142.9093  163.0514 H       1  UNL1        0.1569
     20 H         142.2049  141.3434  164.9755 H       1  UNL1        0.1564
     21 C         140.4280  140.1032  165.0079 C.ar    1  UNL1        0.0516
     22 C         140.3484  138.7150  164.4455 C.ar    1  UNL1        0.0156
     23 C         139.3612  137.7343  165.0055 C.ar    1  UNL1        0.0127
     24 C         138.4537  138.1419  166.1281 C.ar    1  UNL1        0.0578
     25 CL        137.4664  137.1612  166.6882 Cl      1  UNL1       -0.0822
     26 C         138.5333  139.5302  166.6905 C.ar    1  UNL1        0.0127
     27 C         139.5205  140.5108  166.1305 C.ar    1  UNL1        0.0156
     28 C         140.0777  145.0221  161.7659 C.2     1  UNL1        0.2442
     29 N         140.5221  146.2753  162.4601 N.am    1  UNL1       -0.3253
     30 O         138.7094  144.4653  162.0263 O.2     1  UNL1       -0.2703
     31 H         141.4202  146.6407  162.2891 H       1  UNL1        0.1453
     32 H         139.9157  146.7324  163.0866 H       1  UNL1        0.1453
@<TRIPOS>BOND
     1     1     2    1
     2     2     3    1
     3     2     4    1
     4     4     5    1
     5     5     6   ar
     6     6     7   ar
     7     7     8   ar
     8     8    15    1
     9    15    16   am
    10    16    17    2
    11    16    18   am
    12    18    21    1
    13    21    22   ar
    14    22    23   ar
    15    23    24   ar
    16    24    25    1
    17    24    26   ar
    18    26    27   ar
    19     8     9   ar
    20     9    28    1
    21    28    29   am
    22    28    30    2
    23     6    10    1
    24    10    11    1
    25    10    12    1
    26    10    13    1
    27    13     2    1
    28     9     5   ar
    29    27    21   ar
    30    15    19    1
    31    18    20    1
    32    29    31    1
    33    29    32    1
    34    13    14    1
@<TRIPOS>MOLECULE
*****
 32 34 0 0 0
SMALL
GASTEIGER

@<TRIPOS>ATOM
      1 C         142.3682  145.3708  156.4850 C.3     1  UNL1        0.0161
      2 C         141.7497  144.8889  157.7638 C.3     1  UNL1        0.0462
      3 C         140.7489  145.9339  157.3681 C.3     1  UNL1        0.0161
      4 C         140.7837  144.7698  158.9051 C.3     1  UNL1        0.0412
      5 C         141.0333  143.7732  159.9980 C.ar    1  UNL1       -0.0116
      6 C         142.2488  142.8956  159.9496 C.ar    1  UNL1        0.0174
      7 S         142.2309  142.0118  161.1615 S.2     1  UNL1       -0.0754
      8 C         141.0044  142.3432  161.9589 C.ar    1  UNL1        0.0857
      9 C         140.2642  143.4317  161.2399 C.ar    1  UNL1        0.0691
     10 C         143.2147  143.0146  158.8083 C.3     1  UNL1        0.0665
     11 C         143.8800  141.9283  159.6003 C.3     1  UNL1        0.0208
     12 C         144.4117  142.7564  157.9420 C.3     1  UNL1        0.0208
     13 N         142.9652  144.0113  157.7154 N.3     1  UNL1       -0.2978
     14 H         142.9139  143.4851  156.8431 H       1  UNL1        0.1234
     15 N         140.5908  141.6990  163.2489 N.am    1  UNL1       -0.2629
     16 C         141.1611  142.1869  164.5475 C.2     1  UNL1        0.3085
     17 O         142.1451  143.3191  164.5563 O.2     1  UNL1       -0.2521
     18 N         140.7474  141.5428  165.8374 N.am    1  UNL1       -0.2680
     19 H         139.9449  140.9559  163.2431 H       1  UNL1        0.1569
     20 H         140.1016  140.7997  165.8317 H       1  UNL1        0.1564
     21 C         141.3178  142.0307  167.1362 C.ar    1  UNL1        0.0516
     22 C         140.4540  142.7965  168.0940 C.ar    1  UNL1        0.0156
     23 C         141.0242  143.2844  169.3927 C.ar    1  UNL1        0.0127
     24 C         142.4583  143.0066  169.7336 C.ar    1  UNL1        0.0578
     25 CL        143.0286  143.4945  171.0324 Cl      1  UNL1       -0.0822
     26 C         143.3221  142.2408  168.7758 C.ar    1  UNL1        0.0127
     27 C         142.7518  141.7529  167.4771 C.ar    1  UNL1        0.0156
     28 C         138.9803  144.0673  161.6845 C.2     1  UNL1        0.2442
     29 N         137.7374  143.2374  161.8121 N.am    1  UNL1       -0.3253
     30 O         138.9394  145.5329  162.0016 O.2     1  UNL1       -0.2703
     31 H         137.7643  142.2755  161.6040 H       1  UNL1        0.1453
     32 H         136.8947  143.6546  162.1039 H       1  UNL1        0.1453
@<TRIPOS>BOND
     1     1     2    1
     2     2     3    1
     3     2     4    1
     4     4     5    1
     5     5     6   ar
     6     6     7   ar
     7     7     8   ar
     8     8    15    1
     9    15    16   am
    10    16    17    2
    11    16    18   am
    12    18    21    1
    13    21    22   ar
    14    22    23   ar
    15    23    24   ar
    16    24    25    1
    17    24    26   ar
    18    26    27   ar
    19     8     9   ar
    20     9    28    1
    21    28    29   am
    22    28    30    2
    23     6    10    1
    24    10    11    1
    25    10    12    1
    26    10    13    1
    27    13     2    1
    28     9     5   ar
    29    27    21   ar
    30    15    19    1
    31    18    20    1
    32    29    31    1
    33    29    32    1
    34    13    14    1
