@<TRIPOS>MOLECULE
*****
 34 38 0 0 0
SMALL
GASTEIGER

@<TRIPOS>ATOM
      1 N         137.9266  143.0028  162.8768 N.3     1  UNL1       -0.2723
      2 C         137.6987  141.8880  163.8543 C.3     1  UNL1        0.0735
      3 C         137.6720  140.4661  163.3774 C.3     1  UNL1        0.0331
      4 C         137.8730  140.1589  161.9230 C.3     1  UNL1        0.0570
      5 C         138.1008  141.2737  160.9455 C.3     1  UNL1        0.0331
      6 C         138.1276  142.6956  161.4225 C.3     1  UNL1        0.0735
      7 N         137.8462  138.7370  161.4461 N.3     1  UNL1       -0.2934
      8 H         137.2811  138.7218  160.5971 H       1  UNL1        0.1236
      9 C         139.1292  138.0294  161.1250 C.3     1  UNL1        0.1152
     10 C         140.3319  138.2230  162.0002 C.ar    1  UNL1        0.0782
     11 C         141.3964  139.2034  161.6058 C.ar    1  UNL1        0.0562
     12 C         142.5992  139.3970  162.4810 C.ar    1  UNL1        0.1752
     13 C         142.7373  138.6102  163.7506 C.ar    1  UNL1        0.1914
     14 C         141.6728  137.6299  164.1450 C.ar    1  UNL1        0.1384
     15 N         140.4701  137.4362  163.2698 N.ar    1  UNL1       -0.2434
     16 O         143.9401  138.8038  164.6259 O.3     1  UNL1       -0.4668
     17 C         145.0046  139.7842  164.2314 C.3     1  UNL1        0.2527
     18 C         144.8664  140.5710  162.9618 C.3     1  UNL1        0.2526
     19 O         143.6638  140.3774  162.0866 O.3     1  UNL1       -0.4683
     20 C         137.9533  144.4247  163.3537 C.3     1  UNL1        0.0769
     21 C         138.9513  144.8495  164.3899 C.3     1  UNL1        0.0460
     22 C         140.8745  141.9398  167.2333 C.ar    1  UNL1        0.1388
     23 C         142.3217  141.5797  167.0728 C.ar    1  UNL1        0.0384
     24 C         143.1279  142.1895  165.9646 C.ar    1  UNL1        0.0222
     25 C         142.4869  143.1594  165.0168 C.ar    1  UNL1        0.0814
     26 N         143.2931  143.7692  163.9086 N.ar    1  UNL1       -0.2415
     27 C         142.6521  144.7391  162.9608 C.ar    1  UNL1        0.1280
     28 C         141.2047  145.0993  163.1213 C.ar    1  UNL1        0.1553
     29 F         140.5637  146.0692  162.1735 F       1  UNL1       -0.2029
     30 C         140.3985  144.4895  164.2295 C.ar    1  UNL1        0.0098
     31 C         141.0396  143.5195  165.1773 C.ar    1  UNL1        0.0189
     32 C         140.2334  142.9097  166.2855 C.ar    1  UNL1        0.0382
     33 C         139.4475  139.9765  168.1603 C.3     1  UNL1        0.2525
     34 O         140.0683  141.3300  168.3415 O.3     1  UNL1       -0.4714
@<TRIPOS>BOND
     1    33    34    1
     2    34    22    1
     3    22    23   ar
     4    23    24   ar
     5    24    25   ar
     6    25    26   ar
     7    26    27   ar
     8    27    28   ar
     9    28    29    1
    10    28    30   ar
    11    30    21    1
    12    21    20    1
    13    20     1    1
    14     1     2    1
    15     2     3    1
    16     3     4    1
    17     4     7    1
    18     7     9    1
    19     9    10    1
    20    10    11   ar
    21    11    12   ar
    22    12    13   ar
    23    13    14   ar
    24    14    15   ar
    25    13    16    1
    26    16    17    1
    27    17    18    1
    28    18    19    1
    29     4     5    1
    30     5     6    1
    31    30    31   ar
    32    31    32   ar
    33    32    22   ar
    34    31    25   ar
    35     6     1    1
    36    15    10   ar
    37    19    12    1
    38     7     8    1
@<TRIPOS>MOLECULE
*****
 34 38 0 0 0
SMALL
GASTEIGER

@<TRIPOS>ATOM
      1 N         142.9769  144.0171  162.7170 N.3     1  UNL1       -0.2723
      2 C         142.2286  143.8183  161.4323 C.3     1  UNL1        0.0735
      3 C         140.7827  144.2063  161.3388 C.3     1  UNL1        0.0331
      4 C         140.0850  144.7931  162.5300 C.3     1  UNL1        0.0570
      5 C         140.8334  144.9920  163.8147 C.3     1  UNL1        0.0331
      6 C         142.2793  144.6040  163.9082 C.3     1  UNL1        0.0735
      7 N         138.6391  145.1811  162.4365 N.3     1  UNL1       -0.2934
      8 H         138.4177  145.2550  161.4436 H       1  UNL1        0.1236
      9 C         137.5867  144.3066  163.0510 C.3     1  UNL1        0.1152
     10 C         137.7950  142.8231  163.1273 C.ar    1  UNL1        0.0782
     11 C         138.0619  142.1704  164.4512 C.ar    1  UNL1        0.0562
     12 C         138.2702  140.6868  164.5275 C.ar    1  UNL1        0.1752
     13 C         138.2116  139.8561  163.2800 C.ar    1  UNL1        0.1914
     14 C         137.9447  140.5088  161.9561 C.ar    1  UNL1        0.1384
     15 N         137.7364  141.9923  161.8797 N.ar    1  UNL1       -0.2434
     16 O         138.4199  138.3725  163.3563 O.3     1  UNL1       -0.4668
     17 C         138.6868  137.7198  164.6802 C.3     1  UNL1        0.2527
     18 C         138.7454  138.5506  165.9278 C.3     1  UNL1        0.2526
     19 O         138.5371  140.0341  165.8514 O.3     1  UNL1       -0.4683
     20 C         144.4228  143.6292  162.8106 C.3     1  UNL1        0.0769
     21 C         144.8799  142.6928  163.8897 C.3     1  UNL1        0.0460
     22 C         142.7995  141.8791  167.7961 C.ar    1  UNL1        0.1388
     23 C         142.0876  140.5762  168.0095 C.ar    1  UNL1        0.0384
     24 C         142.0692  139.5445  166.9209 C.ar    1  UNL1        0.0222
     25 C         142.7627  139.8157  165.6187 C.ar    1  UNL1        0.0814
     26 N         142.7443  138.7839  164.5301 N.ar    1  UNL1       -0.2415
     27 C         143.4377  139.0551  163.2280 C.ar    1  UNL1        0.1280
     28 C         144.1496  140.3581  163.0145 C.ar    1  UNL1        0.1553
     29 F         144.8431  140.6293  161.7124 F       1  UNL1       -0.2029
     30 C         144.1680  141.3899  164.1031 C.ar    1  UNL1        0.0098
     31 C         143.4745  141.1186  165.4053 C.ar    1  UNL1        0.0189
     32 C         143.4929  142.1503  166.4940 C.ar    1  UNL1        0.0382
     33 C         141.7857  142.8720  169.9724 C.3     1  UNL1        0.2525
     34 O         142.8179  142.9109  168.8847 O.3     1  UNL1       -0.4714
@<TRIPOS>BOND
     1    33    34    1
     2    34    22    1
     3    22    23   ar
     4    23    24   ar
     5    24    25   ar
     6    25    26   ar
     7    26    27   ar
     8    27    28   ar
     9    28    29    1
    10    28    30   ar
    11    30    21    1
    12    21    20    1
    13    20     1    1
    14     1     2    1
    15     2     3    1
    16     3     4    1
    17     4     7    1
    18     7     9    1
    19     9    10    1
    20    10    11   ar
    21    11    12   ar
    22    12    13   ar
    23    13    14   ar
    24    14    15   ar
    25    13    16    1
    26    16    17    1
    27    17    18    1
    28    18    19    1
    29     4     5    1
    30     5     6    1
    31    30    31   ar
    32    31    32   ar
    33    32    22   ar
    34    31    25   ar
    35     6     1    1
    36    15    10   ar
    37    19    12    1
    38     7     8    1
@<TRIPOS>MOLECULE
*****
 34 38 0 0 0
SMALL
GASTEIGER

@<TRIPOS>ATOM
      1 N         142.0106  138.0227  164.1500 N.3     1  UNL1       -0.2723
      2 C         142.2984  138.2459  162.6949 C.3     1  UNL1        0.0735
      3 C         143.4726  139.0831  162.2824 C.3     1  UNL1        0.0331
      4 C         144.3591  139.6973  163.3251 C.3     1  UNL1        0.0570
      5 C         144.0713  139.4742  164.7802 C.3     1  UNL1        0.0331
      6 C         142.8970  138.6368  165.1926 C.3     1  UNL1        0.0735
      7 N         145.5333  140.5346  162.9126 N.3     1  UNL1       -0.2934
      8 H         145.5728  140.5047  161.8938 H       1  UNL1        0.1236
      9 C         145.5987  141.9805  163.3063 C.3     1  UNL1        0.1152
     10 C         144.3922  142.8571  163.1449 C.ar    1  UNL1        0.0782
     11 C         143.8797  143.1824  161.7733 C.ar    1  UNL1        0.0562
     12 C         142.6731  144.0591  161.6119 C.ar    1  UNL1        0.1752
     13 C         141.9793  144.6102  162.8222 C.ar    1  UNL1        0.1914
     14 C         142.4919  144.2848  164.1938 C.ar    1  UNL1        0.1384
     15 N         143.6983  143.4083  164.3552 N.ar    1  UNL1       -0.2434
     16 O         140.7728  145.4868  162.6608 O.3     1  UNL1       -0.4668
     17 C         140.2602  145.8122  161.2892 C.3     1  UNL1        0.2527
     18 C         140.9541  145.2610  160.0789 C.3     1  UNL1        0.2526
     19 O         142.1605  144.3844  160.2403 O.3     1  UNL1       -0.4683
     20 C         140.8364  137.1855  164.5625 C.3     1  UNL1        0.0769
     21 C         139.5642  137.8447  165.0064 C.3     1  UNL1        0.0460
     22 C         140.1854  141.9100  166.8330 C.ar    1  UNL1        0.1388
     23 C         139.6883  143.1348  166.1239 C.ar    1  UNL1        0.0384
     24 C         138.9841  143.0044  164.8059 C.ar    1  UNL1        0.0222
     25 C         138.7770  141.6493  164.1970 C.ar    1  UNL1        0.0814
     26 N         138.0728  141.5189  162.8791 N.ar    1  UNL1       -0.2415
     27 C         137.8657  140.1638  162.2702 C.ar    1  UNL1        0.1280
     28 C         138.3628  138.9390  162.9793 C.ar    1  UNL1        0.1553
     29 F         138.1557  137.5839  162.3704 F       1  UNL1       -0.2029
     30 C         139.0670  139.0694  164.2973 C.ar    1  UNL1        0.0098
     31 C         139.2741  140.4246  164.9062 C.ar    1  UNL1        0.0189
     32 C         139.9783  140.5549  166.2241 C.ar    1  UNL1        0.0382
     33 C         140.5256  143.1528  169.0891 C.3     1  UNL1        0.2525
     34 O         140.8897  142.0404  168.1510 O.3     1  UNL1       -0.4714
@<TRIPOS>BOND
     1    33    34    1
     2    34    22    1
     3    22    23   ar
     4    23    24   ar
     5    24    25   ar
     6    25    26   ar
     7    26    27   ar
     8    27    28   ar
     9    28    29    1
    10    28    30   ar
    11    30    21    1
    12    21    20    1
    13    20     1    1
    14     1     2    1
    15     2     3    1
    16     3     4    1
    17     4     7    1
    18     7     9    1
    19     9    10    1
    20    10    11   ar
    21    11    12   ar
    22    12    13   ar
    23    13    14   ar
    24    14    15   ar
    25    13    16    1
    26    16    17    1
    27    17    18    1
    28    18    19    1
    29     4     5    1
    30     5     6    1
    31    30    31   ar
    32    31    32   ar
    33    32    22   ar
    34    31    25   ar
    35     6     1    1
    36    15    10   ar
    37    19    12    1
    38     7     8    1
@<TRIPOS>MOLECULE
*****
 34 38 0 0 0
SMALL
GASTEIGER

@<TRIPOS>ATOM
      1 N         141.6090  138.2401  164.6119 N.3     1  UNL1       -0.2723
      2 C         140.1717  138.3265  165.0323 C.3     1  UNL1        0.0735
      3 C         139.0816  138.1646  164.0148 C.3     1  UNL1        0.0331
      4 C         139.4288  137.9163  162.5767 C.3     1  UNL1        0.0570
      5 C         140.8661  137.8299  162.1563 C.3     1  UNL1        0.0331
      6 C         141.9562  137.9918  163.1739 C.3     1  UNL1        0.0735
      7 N         138.3387  137.7544  161.5592 N.3     1  UNL1       -0.2934
      8 H         137.7901  136.9423  161.8420 H       1  UNL1        0.1236
      9 C         137.3665  138.8708  161.3174 C.3     1  UNL1        0.1152
     10 C         137.8395  140.2941  161.3351 C.ar    1  UNL1        0.0782
     11 C         138.8040  140.7769  160.2927 C.ar    1  UNL1        0.0562
     12 C         139.2770  142.2004  160.3104 C.ar    1  UNL1        0.1752
     13 C         138.7853  143.1409  161.3704 C.ar    1  UNL1        0.1914
     14 C         137.8208  142.6581  162.4127 C.ar    1  UNL1        0.1384
     15 N         137.3478  141.2348  162.3951 N.ar    1  UNL1       -0.2434
     16 O         139.2583  144.5644  161.3880 O.3     1  UNL1       -0.4668
     17 C         140.2228  145.0472  160.3457 C.3     1  UNL1        0.2527
     18 C         140.7145  144.1065  159.2856 C.3     1  UNL1        0.2526
     19 O         140.2415  142.6832  159.2680 O.3     1  UNL1       -0.4683
     20 C         142.6991  138.4020  165.6294 C.3     1  UNL1        0.0769
     21 C         143.1334  139.7744  166.0515 C.3     1  UNL1        0.0460
     22 C         140.8648  143.5541  165.1475 C.ar    1  UNL1        0.1388
     23 C         141.3927  144.5202  164.1287 C.ar    1  UNL1        0.0384
     24 C         142.6768  144.2263  163.4112 C.ar    1  UNL1        0.0222
     25 C         143.4330  142.9665  163.7125 C.ar    1  UNL1        0.0814
     26 N         144.7171  142.6726  162.9950 N.ar    1  UNL1       -0.2415
     27 C         145.4733  141.4127  163.2963 C.ar    1  UNL1        0.1280
     28 C         144.9454  140.4466  164.3152 C.ar    1  UNL1        0.1553
     29 F         145.7015  139.1867  164.6165 F       1  UNL1       -0.2029
     30 C         143.6613  140.7404  165.0327 C.ar    1  UNL1        0.0098
     31 C         142.9051  142.0004  164.7313 C.ar    1  UNL1        0.0189
     32 C         141.6210  142.2943  165.4488 C.ar    1  UNL1        0.0382
     33 C         138.5909  144.8048  165.2695 C.3     1  UNL1        0.2525
     34 O         139.5808  143.8480  165.8650 O.3     1  UNL1       -0.4714
@<TRIPOS>BOND
     1    33    34    1
     2    34    22    1
     3    22    23   ar
     4    23    24   ar
     5    24    25   ar
     6    25    26   ar
     7    26    27   ar
     8    27    28   ar
     9    28    29    1
    10    28    30   ar
    11    30    21    1
    12    21    20    1
    13    20     1    1
    14     1     2    1
    15     2     3    1
    16     3     4    1
    17     4     7    1
    18     7     9    1
    19     9    10    1
    20    10    11   ar
    21    11    12   ar
    22    12    13   ar
    23    13    14   ar
    24    14    15   ar
    25    13    16    1
    26    16    17    1
    27    17    18    1
    28    18    19    1
    29     4     5    1
    30     5     6    1
    31    30    31   ar
    32    31    32   ar
    33    32    22   ar
    34    31    25   ar
    35     6     1    1
    36    15    10   ar
    37    19    12    1
    38     7     8    1
@<TRIPOS>MOLECULE
*****
 34 38 0 0 0
SMALL
GASTEIGER

@<TRIPOS>ATOM
      1 N         140.6918  144.7482  163.0232 N.3     1  UNL1       -0.2723
      2 C         140.9200  144.1814  161.6533 C.3     1  UNL1        0.0735
      3 C         142.2990  143.7671  161.2331 C.3     1  UNL1        0.0331
      4 C         143.4500  143.9197  162.1829 C.3     1  UNL1        0.0570
      5 C         143.2218  144.4866  163.5528 C.3     1  UNL1        0.0331
      6 C         141.8427  144.9008  163.9729 C.3     1  UNL1        0.0735
      7 N         144.8291  143.5055  161.7628 N.3     1  UNL1       -0.2934
      8 H         145.4744  143.8847  162.4558 H       1  UNL1        0.1236
      9 C         145.1618  142.0507  161.6117 C.3     1  UNL1        0.1152
     10 C         144.4641  141.0296  162.4605 C.ar    1  UNL1        0.0782
     11 C         143.3268  140.2331  161.8929 C.ar    1  UNL1        0.0562
     12 C         142.6291  139.2120  162.7418 C.ar    1  UNL1        0.1752
     13 C         143.0687  138.9874  164.1582 C.ar    1  UNL1        0.1914
     14 C         144.2060  139.7839  164.7258 C.ar    1  UNL1        0.1384
     15 N         144.9037  140.8050  163.8770 N.ar    1  UNL1       -0.2434
     16 O         142.3710  137.9663  165.0072 O.3     1  UNL1       -0.4668
     17 C         141.2337  137.1698  164.4396 C.3     1  UNL1        0.2527
     18 C         140.7942  137.3944  163.0231 C.3     1  UNL1        0.2526
     19 O         141.4919  138.4155  162.1742 O.3     1  UNL1       -0.4683
     20 C         139.3127  145.1624  163.4433 C.3     1  UNL1        0.0769
     21 C         138.5949  144.3996  164.5170 C.3     1  UNL1        0.0460
     22 C         140.6849  142.1876  167.8320 C.ar    1  UNL1        0.1388
     23 C         140.7119  140.6879  167.8323 C.ar    1  UNL1        0.0384
     24 C         140.0422  139.9254  166.7276 C.ar    1  UNL1        0.0222
     25 C         139.3456  140.6627  165.6227 C.ar    1  UNL1        0.0814
     26 N         138.6759  139.9003  164.5180 N.ar    1  UNL1       -0.2415
     27 C         137.9793  140.6376  163.4130 C.ar    1  UNL1        0.1280
     28 C         137.9522  142.1374  163.4127 C.ar    1  UNL1        0.1553
     29 F         137.2556  142.8747  162.3077 F       1  UNL1       -0.2029
     30 C         138.6219  142.8999  164.5173 C.ar    1  UNL1        0.0098
     31 C         139.3186  142.1625  165.6223 C.ar    1  UNL1        0.0189
     32 C         139.9882  142.9249  166.7270 C.ar    1  UNL1        0.0382
     33 C         140.5392  143.8117  169.8546 C.3     1  UNL1        0.2525
     34 O         141.3545  142.9500  168.9366 O.3     1  UNL1       -0.4714
@<TRIPOS>BOND
     1    33    34    1
     2    34    22    1
     3    22    23   ar
     4    23    24   ar
     5    24    25   ar
     6    25    26   ar
     7    26    27   ar
     8    27    28   ar
     9    28    29    1
    10    28    30   ar
    11    30    21    1
    12    21    20    1
    13    20     1    1
    14     1     2    1
    15     2     3    1
    16     3     4    1
    17     4     7    1
    18     7     9    1
    19     9    10    1
    20    10    11   ar
    21    11    12   ar
    22    12    13   ar
    23    13    14   ar
    24    14    15   ar
    25    13    16    1
    26    16    17    1
    27    17    18    1
    28    18    19    1
    29     4     5    1
    30     5     6    1
    31    30    31   ar
    32    31    32   ar
    33    32    22   ar
    34    31    25   ar
    35     6     1    1
    36    15    10   ar
    37    19    12    1
    38     7     8    1
@<TRIPOS>MOLECULE
*****
 34 38 0 0 0
SMALL
GASTEIGER

@<TRIPOS>ATOM
      1 N         143.0200  144.2206  162.5129 N.3     1  UNL1       -0.2723
      2 C         142.2404  143.8287  161.2928 C.3     1  UNL1        0.0735
      3 C         140.7717  144.1230  161.2147 C.3     1  UNL1        0.0331
      4 C         140.0824  144.8091  162.3568 C.3     1  UNL1        0.0570
      5 C         140.8620  145.2009  163.5769 C.3     1  UNL1        0.0331
      6 C         142.3308  144.9066  163.6550 C.3     1  UNL1        0.0735
      7 N         138.6137  145.1033  162.2787 N.3     1  UNL1       -0.2934
      8 H         138.3459  145.0080  161.2991 H       1  UNL1        0.1236
      9 C         137.6413  144.2845  163.0750 C.3     1  UNL1        0.1152
     10 C         137.8387  142.8034  163.2058 C.ar    1  UNL1        0.0782
     11 C         138.1734  142.2064  164.5406 C.ar    1  UNL1        0.0562
     12 C         138.3708  140.7251  164.6714 C.ar    1  UNL1        0.1752
     13 C         138.2335  139.8410  163.4674 C.ar    1  UNL1        0.1914
     14 C         137.8989  140.4380  162.1327 C.ar    1  UNL1        0.1384
     15 N         137.7015  141.9192  162.0019 N.ar    1  UNL1       -0.2434
     16 O         138.4310  138.3598  163.5982 O.3     1  UNL1       -0.4668
     17 C         138.7656  137.7627  164.9330 C.3     1  UNL1        0.2527
     18 C         138.9029  138.6469  166.1369 C.3     1  UNL1        0.2526
     19 O         138.7055  140.1281  166.0061 O.3     1  UNL1       -0.4683
     20 C         144.4887  143.9263  162.5910 C.3     1  UNL1        0.0769
     21 C         144.9613  142.5970  163.1006 C.3     1  UNL1        0.0460
     22 C         143.3078  139.0462  160.8852 C.ar    1  UNL1        0.1388
     23 C         142.3454  138.1189  161.5663 C.ar    1  UNL1        0.0384
     24 C         141.9343  138.3752  162.9859 C.ar    1  UNL1        0.0222
     25 C         142.4854  139.5587  163.7244 C.ar    1  UNL1        0.0814
     26 N         142.0742  139.8150  165.1440 N.ar    1  UNL1       -0.2415
     27 C         142.6254  140.9985  165.8824 C.ar    1  UNL1        0.1280
     28 C         143.5878  141.9259  165.2013 C.ar    1  UNL1        0.1553
     29 F         144.1389  143.1095  165.9398 F       1  UNL1       -0.2029
     30 C         143.9989  141.6697  163.7817 C.ar    1  UNL1        0.0098
     31 C         143.4477  140.4860  163.0432 C.ar    1  UNL1        0.0189
     32 C         143.8589  140.2298  161.6236 C.ar    1  UNL1        0.0382
     33 C         142.7253  138.2434  158.4839 C.3     1  UNL1        0.2525
     34 O         143.7190  138.7900  159.4656 O.3     1  UNL1       -0.4714
@<TRIPOS>BOND
     1    33    34    1
     2    34    22    1
     3    22    23   ar
     4    23    24   ar
     5    24    25   ar
     6    25    26   ar
     7    26    27   ar
     8    27    28   ar
     9    28    29    1
    10    28    30   ar
    11    30    21    1
    12    21    20    1
    13    20     1    1
    14     1     2    1
    15     2     3    1
    16     3     4    1
    17     4     7    1
    18     7     9    1
    19     9    10    1
    20    10    11   ar
    21    11    12   ar
    22    12    13   ar
    23    13    14   ar
    24    14    15   ar
    25    13    16    1
    26    16    17    1
    27    17    18    1
    28    18    19    1
    29     4     5    1
    30     5     6    1
    31    30    31   ar
    32    31    32   ar
    33    32    22   ar
    34    31    25   ar
    35     6     1    1
    36    15    10   ar
    37    19    12    1
    38     7     8    1
@<TRIPOS>MOLECULE
*****
 34 38 0 0 0
SMALL
GASTEIGER

@<TRIPOS>ATOM
      1 N         138.0634  140.1095  162.3947 N.3     1  UNL1       -0.2723
      2 C         137.7260  140.8455  163.6575 C.3     1  UNL1        0.0735
      3 C         137.6323  142.3425  163.6509 C.3     1  UNL1        0.0331
      4 C         137.8760  143.1037  162.3815 C.3     1  UNL1        0.0570
      5 C         138.2134  142.3677  161.1187 C.3     1  UNL1        0.0331
      6 C         138.3071  140.8706  161.1254 C.3     1  UNL1        0.0735
      7 N         137.7823  144.6007  162.3749 N.3     1  UNL1       -0.2934
      8 H         137.1379  144.8587  163.1223 H       1  UNL1        0.1236
      9 C         139.0178  145.4303  162.5627 C.3     1  UNL1        0.1152
     10 C         140.3661  144.7734  162.5851 C.ar    1  UNL1        0.0782
     11 C         140.9516  144.3068  163.8849 C.ar    1  UNL1        0.0562
     12 C         142.2999  143.6499  163.9073 C.ar    1  UNL1        0.1752
     13 C         143.0627  143.4596  162.6298 C.ar    1  UNL1        0.1914
     14 C         142.4772  143.9262  161.3300 C.ar    1  UNL1        0.1384
     15 N         141.1290  144.5831  161.3076 N.ar    1  UNL1       -0.2434
     16 O         144.4111  142.8027  162.6522 O.3     1  UNL1       -0.4668
     17 C         144.9966  142.3361  163.9520 C.3     1  UNL1        0.2527
     18 C         144.2337  142.5264  165.2294 C.3     1  UNL1        0.2526
     19 O         142.8854  143.1833  165.2071 O.3     1  UNL1       -0.4683
     20 C         138.1570  138.6125  162.4013 C.3     1  UNL1        0.0769
     21 C         138.8964  137.9121  163.5026 C.3     1  UNL1        0.0460
     22 C         139.9146  139.5830  167.5550 C.ar    1  UNL1        0.1388
     23 C         141.3285  139.9697  167.8731 C.ar    1  UNL1        0.0384
     24 C         142.4031  139.7994  166.8405 C.ar    1  UNL1        0.0222
     25 C         142.0637  139.2424  165.4898 C.ar    1  UNL1        0.0814
     26 N         143.1383  139.0721  164.4571 N.ar    1  UNL1       -0.2415
     27 C         142.7989  138.5151  163.1064 C.ar    1  UNL1        0.1280
     28 C         141.3849  138.1285  162.7882 C.ar    1  UNL1        0.1553
     29 F         141.0456  137.5715  161.4374 F       1  UNL1       -0.2029
     30 C         140.3104  138.2988  163.8208 C.ar    1  UNL1        0.0098
     31 C         140.6498  138.8558  165.1716 C.ar    1  UNL1        0.0189
     32 C         139.5752  139.0261  166.2042 C.ar    1  UNL1        0.0382
     33 C         139.1355  140.4833  169.8642 C.3     1  UNL1        0.2525
     34 O         138.8400  139.7533  168.5876 O.3     1  UNL1       -0.4714
@<TRIPOS>BOND
     1    33    34    1
     2    34    22    1
     3    22    23   ar
     4    23    24   ar
     5    24    25   ar
     6    25    26   ar
     7    26    27   ar
     8    27    28   ar
     9    28    29    1
    10    28    30   ar
    11    30    21    1
    12    21    20    1
    13    20     1    1
    14     1     2    1
    15     2     3    1
    16     3     4    1
    17     4     7    1
    18     7     9    1
    19     9    10    1
    20    10    11   ar
    21    11    12   ar
    22    12    13   ar
    23    13    14   ar
    24    14    15   ar
    25    13    16    1
    26    16    17    1
    27    17    18    1
    28    18    19    1
    29     4     5    1
    30     5     6    1
    31    30    31   ar
    32    31    32   ar
    33    32    22   ar
    34    31    25   ar
    35     6     1    1
    36    15    10   ar
    37    19    12    1
    38     7     8    1
@<TRIPOS>MOLECULE
*****
 34 38 0 0 0
SMALL
GASTEIGER

@<TRIPOS>ATOM
      1 N         143.0946  138.9509  161.8916 N.3     1  UNL1       -0.2723
      2 C         142.9168  139.9108  160.7528 C.3     1  UNL1        0.0735
      3 C         143.6066  141.2425  160.7796 C.3     1  UNL1        0.0331
      4 C         144.4744  141.6143  161.9454 C.3     1  UNL1        0.0570
      5 C         144.6522  140.6544  163.0842 C.3     1  UNL1        0.0331
      6 C         143.9623  139.3227  163.0573 C.3     1  UNL1        0.0735
      7 N         145.1643  142.9459  161.9722 N.3     1  UNL1       -0.2934
      8 H         145.4095  143.1700  161.0078 H       1  UNL1        0.1236
      9 C         144.4571  144.1459  162.5291 C.3     1  UNL1        0.1152
     10 C         142.9657  144.2576  162.4146 C.ar    1  UNL1        0.0782
     11 C         142.1015  144.0233  163.6180 C.ar    1  UNL1        0.0562
     12 C         140.6100  144.1350  163.5035 C.ar    1  UNL1        0.1752
     13 C         139.9828  144.4811  162.1857 C.ar    1  UNL1        0.1914
     14 C         140.8470  144.7154  160.9823 C.ar    1  UNL1        0.1384
     15 N         142.3384  144.6037  161.0967 N.ar    1  UNL1       -0.2434
     16 O         138.4913  144.5928  162.0712 O.3     1  UNL1       -0.4668
     17 C         137.6271  144.3585  163.2746 C.3     1  UNL1        0.2527
     18 C         138.2544  144.0124  164.5925 C.3     1  UNL1        0.2526
     19 O         139.7458  143.9007  164.7070 O.3     1  UNL1       -0.4683
     20 C         142.4048  137.6193  161.8648 C.3     1  UNL1        0.0769
     21 C         141.3815  137.2835  162.9090 C.3     1  UNL1        0.0460
     22 C         141.4692  139.5434  166.7994 C.ar    1  UNL1        0.1388
     23 C         140.3793  140.5216  167.1232 C.ar    1  UNL1        0.0384
     24 C         139.2600  140.7466  166.1502 C.ar    1  UNL1        0.0222
     25 C         139.2307  139.9933  164.8535 C.ar    1  UNL1        0.0814
     26 N         138.1115  140.2183  163.8805 N.ar    1  UNL1       -0.2415
     27 C         138.0822  139.4651  162.5837 C.ar    1  UNL1        0.1280
     28 C         139.1722  138.4868  162.2598 C.ar    1  UNL1        0.1553
     29 F         139.1430  137.7335  160.9631 F       1  UNL1       -0.2029
     30 C         140.2915  138.2618  163.2328 C.ar    1  UNL1        0.0098
     31 C         140.3207  139.0151  164.5296 C.ar    1  UNL1        0.0189
     32 C         141.4400  138.7901  165.5026 C.ar    1  UNL1        0.0382
     33 C         142.5462  139.9626  169.1263 C.3     1  UNL1        0.2525
     34 O         142.5885  139.3184  167.7724 O.3     1  UNL1       -0.4714
@<TRIPOS>BOND
     1    33    34    1
     2    34    22    1
     3    22    23   ar
     4    23    24   ar
     5    24    25   ar
     6    25    26   ar
     7    26    27   ar
     8    27    28   ar
     9    28    29    1
    10    28    30   ar
    11    30    21    1
    12    21    20    1
    13    20     1    1
    14     1     2    1
    15     2     3    1
    16     3     4    1
    17     4     7    1
    18     7     9    1
    19     9    10    1
    20    10    11   ar
    21    11    12   ar
    22    12    13   ar
    23    13    14   ar
    24    14    15   ar
    25    13    16    1
    26    16    17    1
    27    17    18    1
    28    18    19    1
    29     4     5    1
    30     5     6    1
    31    30    31   ar
    32    31    32   ar
    33    32    22   ar
    34    31    25   ar
    35     6     1    1
    36    15    10   ar
    37    19    12    1
    38     7     8    1
@<TRIPOS>MOLECULE
*****
 34 38 0 0 0
SMALL
GASTEIGER

@<TRIPOS>ATOM
      1 N         137.8071  140.2419  161.8679 N.3     1  UNL1       -0.2723
      2 C         138.2756  141.1084  160.7367 C.3     1  UNL1        0.0735
      3 C         138.4209  142.5880  160.9356 C.3     1  UNL1        0.0331
      4 C         138.0977  143.2012  162.2659 C.3     1  UNL1        0.0570
      5 C         137.6291  142.3348  163.3972 C.3     1  UNL1        0.0331
      6 C         137.4839  140.8551  163.1982 C.3     1  UNL1        0.0735
      7 N         138.2429  144.6808  162.4648 N.3     1  UNL1       -0.2934
      8 H         137.7109  144.9190  163.3019 H       1  UNL1        0.1236
      9 C         139.6058  145.2849  162.6314 C.3     1  UNL1        0.1152
     10 C         140.7286  144.4606  163.1878 C.ar    1  UNL1        0.0782
     11 C         141.9008  144.1076  162.3210 C.ar    1  UNL1        0.0562
     12 C         143.0237  143.2832  162.8774 C.ar    1  UNL1        0.1752
     13 C         142.9745  142.8120  164.3006 C.ar    1  UNL1        0.1914
     14 C         141.8023  143.1651  165.1674 C.ar    1  UNL1        0.1384
     15 N         140.6794  143.9894  164.6111 N.ar    1  UNL1       -0.2434
     16 O         144.0974  141.9876  164.8571 O.3     1  UNL1       -0.4668
     17 C         145.2695  141.6345  163.9902 C.3     1  UNL1        0.2527
     18 C         145.3188  142.1058  162.5670 C.3     1  UNL1        0.2526
     19 O         144.1959  142.9301  162.0106 O.3     1  UNL1       -0.4683
     20 C         137.6618  138.7623  161.6690 C.3     1  UNL1        0.0769
     21 C         138.8807  137.9062  161.4914 C.3     1  UNL1        0.0460
     22 C         143.0515  138.5769  159.9409 C.ar    1  UNL1        0.1388
     23 C         144.1982  138.6963  160.9005 C.ar    1  UNL1        0.0384
     24 C         143.9547  138.5921  162.3769 C.ar    1  UNL1        0.0222
     25 C         142.5644  138.3685  162.8937 C.ar    1  UNL1        0.0814
     26 N         142.3208  138.2644  164.3702 N.ar    1  UNL1       -0.2415
     27 C         140.9306  138.0408  164.8870 C.ar    1  UNL1        0.1280
     28 C         139.7838  137.9214  163.9274 C.ar    1  UNL1        0.1553
     29 F         138.3936  137.6978  164.4443 F       1  UNL1       -0.2029
     30 C         140.0274  138.0256  162.4510 C.ar    1  UNL1        0.0098
     31 C         141.4177  138.2491  161.9342 C.ar    1  UNL1        0.0189
     32 C         141.6613  138.3533  160.4577 C.ar    1  UNL1        0.0382
     33 C         142.2329  138.2504  157.4969 C.3     1  UNL1        0.2525
     34 O         143.2951  138.6811  158.4645 O.3     1  UNL1       -0.4714
@<TRIPOS>BOND
     1    33    34    1
     2    34    22    1
     3    22    23   ar
     4    23    24   ar
     5    24    25   ar
     6    25    26   ar
     7    26    27   ar
     8    27    28   ar
     9    28    29    1
    10    28    30   ar
    11    30    21    1
    12    21    20    1
    13    20     1    1
    14     1     2    1
    15     2     3    1
    16     3     4    1
    17     4     7    1
    18     7     9    1
    19     9    10    1
    20    10    11   ar
    21    11    12   ar
    22    12    13   ar
    23    13    14   ar
    24    14    15   ar
    25    13    16    1
    26    16    17    1
    27    17    18    1
    28    18    19    1
    29     4     5    1
    30     5     6    1
    31    30    31   ar
    32    31    32   ar
    33    32    22   ar
    34    31    25   ar
    35     6     1    1
    36    15    10   ar
    37    19    12    1
    38     7     8    1
