@<TRIPOS>MOLECULE
*****
 37 40 0 0 0
SMALL
GASTEIGER

@<TRIPOS>ATOM
      1 C         143.1972  140.2769  161.5108 C.3     1  UNL1        0.0954
      2 C         143.0804  139.9279  160.0567 C.ar    1  UNL1       -0.0045
      3 C         143.9130  140.6539  159.0419 C.ar    1  UNL1       -0.0027
      4 C         143.7962  140.3049  157.5877 C.ar    1  UNL1       -0.0003
      5 C         142.8467  139.2299  157.1483 C.ar    1  UNL1       -0.0000
      6 C         142.0142  138.5040  158.1631 C.ar    1  UNL1       -0.0003
      7 C         142.1310  138.8529  159.6172 C.ar    1  UNL1       -0.0027
      8 N         142.0377  140.9032  162.2273 N.am    1  UNL1       -0.3022
      9 C         141.8585  142.3923  162.2058 C.2     1  UNL1        0.2222
     10 O         142.8388  143.2551  161.4679 O.2     1  UNL1       -0.2751
     11 H         141.3942  140.3369  162.7116 H       1  UNL1        0.1497
     12 C         140.6990  143.0185  162.9223 C.3     1  UNL1        0.0769
     13 C         140.9320  143.8217  164.1676 C.3     1  UNL1        0.0147
     14 C         139.7724  144.4479  164.8840 C.3     1  UNL1        0.0671
     15 C         138.3800  144.2711  164.3552 C.3     1  UNL1        0.2640
     16 F         136.8885  144.3871  164.2456 F       1  UNL1       -0.2043
     17 F         138.0950  145.1145  165.5624 F       1  UNL1       -0.2043
     18 C         138.1470  143.4679  163.1099 C.3     1  UNL1        0.0671
     19 C         139.3065  142.8417  162.3935 C.3     1  UNL1        0.0147
     20 C         144.4735  139.9995  162.2485 C.3     1  UNL1        0.0401
     21 C         144.7640  140.7091  163.5377 C.3     1  UNL1        0.0595
     22 C         145.9737  141.5883  163.6538 C.3     1  UNL1        0.0174
     23 C         142.0062  140.2004  167.0570 C.3     1  UNL1        0.0905
     24 C         142.5280  141.5616  166.7038 C.3     1  UNL1        0.0400
     25 C         143.4472  141.7311  165.5307 C.3     1  UNL1        0.0740
     26 N         143.8447  140.5395  164.7108 N.3     1  UNL1       -0.2738
     27 C         143.3229  139.1783  165.0641 C.3     1  UNL1        0.0740
     28 C         142.4036  139.0088  166.2372 C.3     1  UNL1        0.0400
     29 C         142.8796  140.2474  170.2010 C.3     1  UNL1        0.0738
     30 C         141.4884  140.0524  169.6753 C.ar    1  UNL1        0.1433
     31 N         140.2543  139.8447  170.5023 N.ar    1  UNL1       -0.1337
     32 N         139.0901  139.6947  169.5684 N.ar    1  UNL1       -0.1337
     33 C         139.6047  139.8097  168.1641 C.ar    1  UNL1        0.1425
     34 N         141.0869  140.0308  168.2302 N.ar    1  UNL1       -0.3039
     35 C         138.7816  139.7195  166.9134 C.3     1  UNL1        0.0588
     36 C         138.9565  140.7372  165.8254 C.3     1  UNL1        0.0080
     37 C         137.7836  138.6116  166.7506 C.3     1  UNL1        0.0080
@<TRIPOS>BOND
     1    29    30    1
     2    30    31   ar
     3    31    32   ar
     4    32    33   ar
     5    33    35    1
     6    35    36    1
     7    35    37    1
     8    33    34   ar
     9    34    23    1
    10    23    24    1
    11    24    25    1
    12    25    26    1
    13    26    21    1
    14    21    22    1
    15    21    20    1
    16     1    20    1
    17     1     8    1
    18     8     9   am
    19     9    10    2
    20     9    12    1
    21    12    13    1
    22    13    14    1
    23    14    15    1
    24    15    16    1
    25    15    17    1
    26    15    18    1
    27    18    19    1
    28     1     2    1
    29     2     3   ar
    30     3     4   ar
    31     4     5   ar
    32     5     6   ar
    33     6     7   ar
    34    26    27    1
    35    27    28    1
    36    34    30   ar
    37    28    23    1
    38    19    12    1
    39     7     2   ar
    40     8    11    1
@<TRIPOS>MOLECULE
*****
 37 40 0 0 0
SMALL
GASTEIGER

@<TRIPOS>ATOM
      1 C         141.2744  144.1033  161.0474 C.3     1  UNL1        0.0954
      2 C         141.3234  144.6100  159.6364 C.ar    1  UNL1       -0.0045
      3 C         142.4033  144.1396  158.7076 C.ar    1  UNL1       -0.0027
      4 C         142.4523  144.6464  157.2967 C.ar    1  UNL1       -0.0003
      5 C         141.4214  145.6236  156.8145 C.ar    1  UNL1       -0.0000
      6 C         140.3416  146.0940  157.7433 C.ar    1  UNL1       -0.0003
      7 C         140.2926  145.5872  159.1542 C.ar    1  UNL1       -0.0027
      8 N         140.8441  142.6930  161.3232 N.am    1  UNL1       -0.3022
      9 C         139.3869  142.3682  161.4683 C.2     1  UNL1        0.2222
     10 O         138.3599  143.4537  161.3376 O.2     1  UNL1       -0.2751
     11 H         141.5181  141.9805  161.4090 H       1  UNL1        0.1497
     12 C         138.9566  140.9580  161.7442 C.3     1  UNL1        0.0769
     13 C         139.6264  140.1682  162.8293 C.3     1  UNL1        0.0147
     14 C         139.1961  138.7579  163.1052 C.3     1  UNL1        0.0671
     15 C         138.0961  138.1375  162.2958 C.3     1  UNL1        0.2640
     16 F         137.1097  137.1201  161.8040 F       1  UNL1       -0.2043
     17 F         138.4233  136.9944  163.2102 F       1  UNL1       -0.2043
     18 C         137.4264  138.9273  161.2106 C.3     1  UNL1        0.0671
     19 C         137.8566  140.3375  160.9348 C.3     1  UNL1        0.0147
     20 C         141.6556  145.0067  162.1824 C.3     1  UNL1        0.0401
     21 C         142.5555  144.5034  163.2718 C.3     1  UNL1        0.0595
     22 C         144.0342  144.7430  163.1937 C.3     1  UNL1        0.0174
     23 C         140.8191  142.2750  166.7746 C.3     1  UNL1        0.0905
     24 C         139.9346  143.1302  165.9166 C.3     1  UNL1        0.0400
     25 C         140.5134  143.8730  164.7491 C.3     1  UNL1        0.0740
     26 N         141.9767  143.7606  164.4395 N.3     1  UNL1       -0.2738
     27 C         142.8613  142.9054  165.2974 C.3     1  UNL1        0.0740
     28 C         142.2825  142.1626  166.4649 C.3     1  UNL1        0.0400
     29 C         139.0917  139.5104  166.6239 C.3     1  UNL1        0.0738
     30 C         139.4464  140.2615  167.8729 C.ar    1  UNL1        0.1433
     31 N         139.0693  139.8736  169.2719 N.ar    1  UNL1       -0.1337
     32 N         139.6302  140.9047  170.2060 N.ar    1  UNL1       -0.1337
     33 C         140.3540  141.9297  169.3841 C.ar    1  UNL1        0.1425
     34 N         140.2404  141.5322  167.9422 N.ar    1  UNL1       -0.3039
     35 C         141.0663  143.1398  169.9116 C.3     1  UNL1        0.0588
     36 C         140.3193  144.4268  170.1007 C.3     1  UNL1        0.0080
     37 C         142.5256  143.0631  170.2499 C.3     1  UNL1        0.0080
@<TRIPOS>BOND
     1    29    30    1
     2    30    31   ar
     3    31    32   ar
     4    32    33   ar
     5    33    35    1
     6    35    36    1
     7    35    37    1
     8    33    34   ar
     9    34    23    1
    10    23    24    1
    11    24    25    1
    12    25    26    1
    13    26    21    1
    14    21    22    1
    15    21    20    1
    16     1    20    1
    17     1     8    1
    18     8     9   am
    19     9    10    2
    20     9    12    1
    21    12    13    1
    22    13    14    1
    23    14    15    1
    24    15    16    1
    25    15    17    1
    26    15    18    1
    27    18    19    1
    28     1     2    1
    29     2     3   ar
    30     3     4   ar
    31     4     5   ar
    32     5     6   ar
    33     6     7   ar
    34    26    27    1
    35    27    28    1
    36    34    30   ar
    37    28    23    1
    38    19    12    1
    39     7     2   ar
    40     8    11    1
@<TRIPOS>MOLECULE
*****
 37 40 0 0 0
SMALL
GASTEIGER

@<TRIPOS>ATOM
      1 C         139.6633  142.9732  159.4119 C.3     1  UNL1        0.0954
      2 C         139.6399  143.9004  158.2331 C.ar    1  UNL1       -0.0045
      3 C         138.9659  143.4793  156.9609 C.ar    1  UNL1       -0.0027
      4 C         138.9424  144.4065  155.7821 C.ar    1  UNL1       -0.0003
      5 C         139.5931  145.7549  155.8754 C.ar    1  UNL1       -0.0000
      6 C         140.2671  146.1760  157.1475 C.ar    1  UNL1       -0.0003
      7 C         140.2905  145.2487  158.3264 C.ar    1  UNL1       -0.0027
      8 N         140.8209  143.0015  160.3655 N.am    1  UNL1       -0.3022
      9 C         140.7199  143.7780  161.6449 C.2     1  UNL1        0.2222
     10 O         139.4614  144.5263  161.9707 O.2     1  UNL1       -0.2751
     11 H         141.6470  142.5104  160.1517 H       1  UNL1        0.1497
     12 C         141.8775  143.8063  162.5984 C.3     1  UNL1        0.0769
     13 C         142.7390  142.5903  162.7684 C.3     1  UNL1        0.0147
     14 C         143.8966  142.6186  163.7220 C.3     1  UNL1        0.0671
     15 C         144.1926  143.8630  164.5055 C.3     1  UNL1        0.2640
     16 F         144.8695  144.7978  165.4636 F       1  UNL1       -0.2043
     17 F         145.2892  142.9716  165.0082 F       1  UNL1       -0.2043
     18 C         143.3311  145.0791  164.3354 C.3     1  UNL1        0.0671
     19 C         142.1735  145.0508  163.3819 C.3     1  UNL1        0.0147
     20 C         138.5293  142.0177  159.6372 C.3     1  UNL1        0.0401
     21 C         138.7858  140.6878  160.2819 C.3     1  UNL1        0.0595
     22 C         138.9314  139.4590  159.4342 C.3     1  UNL1        0.0174
     23 C         139.1187  140.3848  164.7594 C.3     1  UNL1        0.0905
     24 C         140.2189  139.8556  163.8880 C.3     1  UNL1        0.0400
     25 C         140.1080  139.9566  162.3956 C.3     1  UNL1        0.0740
     26 N         138.8968  140.5868  161.7745 N.3     1  UNL1       -0.2738
     27 C         137.7965  141.1161  162.6458 C.3     1  UNL1        0.0740
     28 C         137.9075  141.0151  164.1383 C.3     1  UNL1        0.0400
     29 C         137.6847  138.1377  166.6419 C.3     1  UNL1        0.0738
     30 C         138.5705  139.2510  167.1171 C.ar    1  UNL1        0.1433
     31 N         138.9527  139.5268  168.5412 N.ar    1  UNL1       -0.1337
     32 N         139.8481  140.7303  168.5560 N.ar    1  UNL1       -0.1337
     33 C         140.0192  141.1981  167.1412 C.ar    1  UNL1        0.1425
     34 N         139.2296  140.2839  166.2519 N.ar    1  UNL1       -0.3039
     35 C         140.8364  142.3738  166.6941 C.3     1  UNL1        0.0588
     36 C         140.1939  143.4791  165.9096 C.3     1  UNL1        0.0080
     37 C         142.2963  142.4442  167.0315 C.3     1  UNL1        0.0080
@<TRIPOS>BOND
     1    29    30    1
     2    30    31   ar
     3    31    32   ar
     4    32    33   ar
     5    33    35    1
     6    35    36    1
     7    35    37    1
     8    33    34   ar
     9    34    23    1
    10    23    24    1
    11    24    25    1
    12    25    26    1
    13    26    21    1
    14    21    22    1
    15    21    20    1
    16     1    20    1
    17     1     8    1
    18     8     9   am
    19     9    10    2
    20     9    12    1
    21    12    13    1
    22    13    14    1
    23    14    15    1
    24    15    16    1
    25    15    17    1
    26    15    18    1
    27    18    19    1
    28     1     2    1
    29     2     3   ar
    30     3     4   ar
    31     4     5   ar
    32     5     6   ar
    33     6     7   ar
    34    26    27    1
    35    27    28    1
    36    34    30   ar
    37    28    23    1
    38    19    12    1
    39     7     2   ar
    40     8    11    1
@<TRIPOS>MOLECULE
*****
 37 40 0 0 0
SMALL
GASTEIGER

@<TRIPOS>ATOM
      1 C         142.7240  141.9759  166.0367 C.3     1  UNL1        0.0954
      2 C         142.8168  141.4953  167.4546 C.ar    1  UNL1       -0.0045
      3 C         142.3554  140.1128  167.8095 C.ar    1  UNL1       -0.0027
      4 C         142.4481  139.6321  169.2274 C.ar    1  UNL1       -0.0003
      5 C         143.0023  140.5339  170.2903 C.ar    1  UNL1       -0.0000
      6 C         143.4636  141.9163  169.9353 C.ar    1  UNL1       -0.0003
      7 C         143.3708  142.3970  168.5175 C.ar    1  UNL1       -0.0027
      8 N         141.5497  141.5870  165.1882 N.am    1  UNL1       -0.3022
      9 C         141.5559  140.2797  164.4530 C.2     1  UNL1        0.2222
     10 O         142.7364  139.3611  164.5661 O.2     1  UNL1       -0.2751
     11 H         140.7749  142.1899  165.1140 H       1  UNL1        0.1497
     12 C         140.3816  139.8908  163.6046 C.3     1  UNL1        0.0769
     13 C         139.8806  138.4770  163.6200 C.3     1  UNL1        0.0147
     14 C         138.7063  138.0882  162.7715 C.3     1  UNL1        0.0671
     15 C         138.0330  139.1131  161.9077 C.3     1  UNL1        0.2640
     16 F         137.0696  139.7203  160.9314 F       1  UNL1       -0.2043
     17 F         137.1974  137.9103  161.5841 F       1  UNL1       -0.2043
     18 C         138.5341  140.5269  161.8923 C.3     1  UNL1        0.0671
     19 C         139.7083  140.9157  162.7407 C.3     1  UNL1        0.0147
     20 C         143.8055  142.8455  165.4673 C.3     1  UNL1        0.0401
     21 C         143.5873  143.5582  164.1656 C.3     1  UNL1        0.0595
     22 C         143.3257  145.0352  164.1539 C.3     1  UNL1        0.0174
     23 C         143.7173  141.2656  160.2957 C.3     1  UNL1        0.0905
     24 C         142.8505  142.4837  160.4169 C.3     1  UNL1        0.0400
     25 C         142.8072  143.2479  161.7069 C.3     1  UNL1        0.0740
     26 N         143.6307  142.7940  162.8756 N.3     1  UNL1       -0.2738
     27 C         144.4975  141.5759  162.7543 C.3     1  UNL1        0.0740
     28 C         144.5408  140.8117  161.4643 C.3     1  UNL1        0.0400
     29 C         145.4349  142.0770  157.6421 C.3     1  UNL1        0.0738
     30 C         144.5502  140.8743  157.7860 C.ar    1  UNL1        0.1433
     31 N         144.2996  139.8334  156.7354 N.ar    1  UNL1       -0.1337
     32 N         143.3553  138.8170  157.3058 N.ar    1  UNL1       -0.1337
     33 C         143.0222  139.2298  158.7089 C.ar    1  UNL1        0.1425
     34 N         143.7607  140.5013  159.0056 N.ar    1  UNL1       -0.3039
     35 C         142.1108  138.4994  159.6500 C.3     1  UNL1        0.0588
     36 C         142.6855  137.6994  160.7811 C.3     1  UNL1        0.0080
     37 C         140.6245  138.5690  159.4599 C.3     1  UNL1        0.0080
@<TRIPOS>BOND
     1    29    30    1
     2    30    31   ar
     3    31    32   ar
     4    32    33   ar
     5    33    35    1
     6    35    36    1
     7    35    37    1
     8    33    34   ar
     9    34    23    1
    10    23    24    1
    11    24    25    1
    12    25    26    1
    13    26    21    1
    14    21    22    1
    15    21    20    1
    16     1    20    1
    17     1     8    1
    18     8     9   am
    19     9    10    2
    20     9    12    1
    21    12    13    1
    22    13    14    1
    23    14    15    1
    24    15    16    1
    25    15    17    1
    26    15    18    1
    27    18    19    1
    28     1     2    1
    29     2     3   ar
    30     3     4   ar
    31     4     5   ar
    32     5     6   ar
    33     6     7   ar
    34    26    27    1
    35    27    28    1
    36    34    30   ar
    37    28    23    1
    38    19    12    1
    39     7     2   ar
    40     8    11    1
@<TRIPOS>MOLECULE
*****
 37 40 0 0 0
SMALL
GASTEIGER

@<TRIPOS>ATOM
      1 C         141.9879  140.0099  166.2472 C.3     1  UNL1        0.0954
      2 C         141.5103  139.9787  167.6688 C.ar    1  UNL1       -0.0045
      3 C         142.4342  139.5264  168.7606 C.ar    1  UNL1       -0.0027
      4 C         141.9566  139.4953  170.1822 C.ar    1  UNL1       -0.0003
      5 C         140.5552  139.9163  170.5120 C.ar    1  UNL1       -0.0000
      6 C         139.6314  140.3686  169.4202 C.ar    1  UNL1       -0.0003
      7 C         140.1090  140.3998  167.9986 C.ar    1  UNL1       -0.0027
      8 N         141.3978  140.9921  165.2792 N.am    1  UNL1       -0.3022
      9 C         141.9726  142.3731  165.1678 C.2     1  UNL1        0.2222
     10 O         143.1375  142.7720  166.0245 O.2     1  UNL1       -0.2751
     11 H         140.6332  140.7304  164.7169 H       1  UNL1        0.1497
     12 C         141.3824  143.3552  164.1998 C.3     1  UNL1        0.0769
     13 C         142.1365  143.7304  162.9585 C.3     1  UNL1        0.0147
     14 C         141.5463  144.7126  161.9905 C.3     1  UNL1        0.0671
     15 C         140.2021  145.3196  162.2637 C.3     1  UNL1        0.2640
     16 F         138.9713  146.1580  162.0842 F       1  UNL1       -0.2043
     17 F         140.5287  145.9859  160.9601 F       1  UNL1       -0.2043
     18 C         139.4480  144.9444  163.5049 C.3     1  UNL1        0.0671
     19 C         140.0382  143.9623  164.4730 C.3     1  UNL1        0.0147
     20 C         143.0556  139.0590  165.7937 C.3     1  UNL1        0.0401
     21 C         143.6789  139.2218  164.4390 C.3     1  UNL1        0.0595
     22 C         145.1669  139.3592  164.3098 C.3     1  UNL1        0.0174
     23 C         141.0844  139.2981  160.7631 C.3     1  UNL1        0.0905
     24 C         140.9311  138.1936  161.7664 C.3     1  UNL1        0.0400
     25 C         141.7960  138.1682  162.9917 C.3     1  UNL1        0.0740
     26 N         142.8140  139.2472  163.2137 N.3     1  UNL1       -0.2738
     27 C         142.9672  140.3517  162.2104 C.3     1  UNL1        0.0740
     28 C         142.1024  140.3771  160.9851 C.3     1  UNL1        0.0400
     29 C         141.6620  137.7052  157.9740 C.3     1  UNL1        0.0738
     30 C         140.4851  138.5914  158.2558 C.ar    1  UNL1        0.1433
     31 N         139.3670  138.9010  157.3050 N.ar    1  UNL1       -0.1337
     32 N         138.4103  139.8245  157.9993 N.ar    1  UNL1       -0.1337
     33 C         138.9372  140.0856  159.3792 C.ar    1  UNL1        0.1425
     34 N         140.2195  139.3235  159.5377 N.ar    1  UNL1       -0.3039
     35 C         138.2947  140.9560  160.4182 C.3     1  UNL1        0.0588
     36 C         137.5022  140.3358  161.5305 C.3     1  UNL1        0.0080
     37 C         138.4447  142.4467  160.3450 C.3     1  UNL1        0.0080
@<TRIPOS>BOND
     1    29    30    1
     2    30    31   ar
     3    31    32   ar
     4    32    33   ar
     5    33    35    1
     6    35    36    1
     7    35    37    1
     8    33    34   ar
     9    34    23    1
    10    23    24    1
    11    24    25    1
    12    25    26    1
    13    26    21    1
    14    21    22    1
    15    21    20    1
    16     1    20    1
    17     1     8    1
    18     8     9   am
    19     9    10    2
    20     9    12    1
    21    12    13    1
    22    13    14    1
    23    14    15    1
    24    15    16    1
    25    15    17    1
    26    15    18    1
    27    18    19    1
    28     1     2    1
    29     2     3   ar
    30     3     4   ar
    31     4     5   ar
    32     5     6   ar
    33     6     7   ar
    34    26    27    1
    35    27    28    1
    36    34    30   ar
    37    28    23    1
    38    19    12    1
    39     7     2   ar
    40     8    11    1
@<TRIPOS>MOLECULE
*****
 37 40 0 0 0
SMALL
GASTEIGER

@<TRIPOS>ATOM
      1 C         140.8820  143.8774  161.2890 C.3     1  UNL1        0.0954
      2 C         140.7180  144.0839  159.8124 C.ar    1  UNL1       -0.0045
      3 C         140.6030  142.9005  158.8978 C.ar    1  UNL1       -0.0027
      4 C         140.4389  143.1070  157.4211 C.ar    1  UNL1       -0.0003
      5 C         140.3899  144.4969  156.8591 C.ar    1  UNL1       -0.0000
      6 C         140.5049  145.6802  157.7737 C.ar    1  UNL1       -0.0003
      7 C         140.6689  145.4737  159.2503 C.ar    1  UNL1       -0.0027
      8 N         140.5220  142.5585  161.9064 N.am    1  UNL1       -0.3022
      9 C         141.5623  141.4871  162.0464 C.2     1  UNL1        0.2222
     10 O         142.9626  141.7343  161.5689 O.2     1  UNL1       -0.2751
     11 H         139.6029  142.3962  162.2198 H       1  UNL1        0.1497
     12 C         141.2022  140.1683  162.6637 C.3     1  UNL1        0.0769
     13 C         139.7927  139.6618  162.5820 C.3     1  UNL1        0.0147
     14 C         139.4327  138.3429  163.1994 C.3     1  UNL1        0.0671
     15 C         140.4822  137.5307  163.8985 C.3     1  UNL1        0.2640
     16 F         141.1190  136.4070  164.6613 F       1  UNL1       -0.2043
     17 F         139.2939  136.6339  164.0817 F       1  UNL1       -0.2043
     18 C         141.8917  138.0372  163.9803 C.3     1  UNL1        0.0671
     19 C         142.2518  139.3560  163.3629 C.3     1  UNL1        0.0147
     20 C         141.4059  144.9896  162.1482 C.3     1  UNL1        0.0401
     21 C         142.3097  144.6817  163.3051 C.3     1  UNL1        0.0595
     22 C         143.7330  145.1549  163.2917 C.3     1  UNL1        0.0174
     23 C         140.7507  142.3380  166.8161 C.3     1  UNL1        0.0905
     24 C         139.8543  143.3070  166.1037 C.3     1  UNL1        0.0400
     25 C         140.3740  144.0882  164.9334 C.3     1  UNL1        0.0740
     26 N         141.7900  143.9004  164.4755 N.3     1  UNL1       -0.2738
     27 C         142.6863  142.9314  165.1879 C.3     1  UNL1        0.0740
     28 C         142.1667  142.1502  166.3582 C.3     1  UNL1        0.0400
     29 C         139.0975  139.5284  166.6652 C.3     1  UNL1        0.0738
     30 C         139.4712  140.2654  167.9171 C.ar    1  UNL1        0.1433
     31 N         139.1505  139.8403  169.3194 N.ar    1  UNL1       -0.1337
     32 N         139.7122  140.8691  170.2555 N.ar    1  UNL1       -0.1337
     33 C         140.3800  141.9299  169.4317 C.ar    1  UNL1        0.1425
     34 N         140.2310  141.5568  167.9865 N.ar    1  UNL1       -0.3039
     35 C         141.0748  143.1497  169.9603 C.3     1  UNL1        0.0588
     36 C         142.5264  143.0840  170.3323 C.3     1  UNL1        0.0080
     37 C         140.3179  144.4352  170.1169 C.3     1  UNL1        0.0080
@<TRIPOS>BOND
     1    29    30    1
     2    30    31   ar
     3    31    32   ar
     4    32    33   ar
     5    33    35    1
     6    35    36    1
     7    35    37    1
     8    33    34   ar
     9    34    23    1
    10    23    24    1
    11    24    25    1
    12    25    26    1
    13    26    21    1
    14    21    22    1
    15    21    20    1
    16     1    20    1
    17     1     8    1
    18     8     9   am
    19     9    10    2
    20     9    12    1
    21    12    13    1
    22    13    14    1
    23    14    15    1
    24    15    16    1
    25    15    17    1
    26    15    18    1
    27    18    19    1
    28     1     2    1
    29     2     3   ar
    30     3     4   ar
    31     4     5   ar
    32     5     6   ar
    33     6     7   ar
    34    26    27    1
    35    27    28    1
    36    34    30   ar
    37    28    23    1
    38    19    12    1
    39     7     2   ar
    40     8    11    1
@<TRIPOS>MOLECULE
*****
 37 40 0 0 0
SMALL
GASTEIGER

@<TRIPOS>ATOM
      1 C         141.1702  144.7725  162.3273 C.3     1  UNL1        0.0954
      2 C         142.2976  144.1080  163.0604 C.ar    1  UNL1       -0.0045
      3 C         143.1176  144.8905  164.0430 C.ar    1  UNL1       -0.0027
      4 C         144.2450  144.2260  164.7762 C.ar    1  UNL1       -0.0003
      5 C         144.5524  142.7792  164.5267 C.ar    1  UNL1       -0.0000
      6 C         143.7324  141.9968  163.5442 C.ar    1  UNL1       -0.0003
      7 C         142.6050  142.6612  162.8110 C.ar    1  UNL1       -0.0027
      8 N         141.3663  145.2410  160.9158 N.am    1  UNL1       -0.3022
      9 C         140.7227  144.4982  159.7828 C.2     1  UNL1        0.2222
     10 O         139.8829  143.2869  160.0610 O.2     1  UNL1       -0.2751
     11 H         141.9175  146.0361  160.7332 H       1  UNL1        0.1497
     12 C         140.9188  144.9668  158.3714 C.3     1  UNL1        0.0769
     13 C         142.0678  144.4448  157.5607 C.3     1  UNL1        0.0147
     14 C         142.2639  144.9134  156.1493 C.3     1  UNL1        0.0671
     15 C         141.3111  145.9039  155.5486 C.3     1  UNL1        0.2640
     16 F         140.6812  146.8242  154.5455 F       1  UNL1       -0.2043
     17 F         142.2413  145.7015  154.3895 F       1  UNL1       -0.2043
     18 C         140.1620  146.4259  156.3594 C.3     1  UNL1        0.0671
     19 C         139.9659  145.9574  157.7707 C.3     1  UNL1        0.0147
     20 C         139.8467  144.9684  163.0055 C.3     1  UNL1        0.0401
     21 C         139.0834  143.7828  163.5172 C.3     1  UNL1        0.0595
     22 C         137.7319  143.4602  162.9521 C.3     1  UNL1        0.0174
     23 C         140.8481  141.1942  166.7475 C.3     1  UNL1        0.0905
     24 C         140.9062  142.6882  166.8682 C.3     1  UNL1        0.0400
     25 C         140.3180  143.5510  165.7914 C.3     1  UNL1        0.0740
     26 N         139.6716  142.9199  164.5940 N.3     1  UNL1       -0.2738
     27 C         139.6135  141.4259  164.4733 C.3     1  UNL1        0.0740
     28 C         140.2017  140.5631  165.5501 C.3     1  UNL1        0.0400
     29 C         143.4585  139.2595  166.4433 C.3     1  UNL1        0.0738
     30 C         142.6361  139.4420  167.6845 C.ar    1  UNL1        0.1433
     31 N         142.8693  138.7673  169.0037 N.ar    1  UNL1       -0.1337
     32 N         141.8135  139.2396  169.9589 N.ar    1  UNL1       -0.1337
     33 C         140.9279  140.2062  169.2300 C.ar    1  UNL1        0.1425
     34 N         141.4363  140.3313  167.8243 N.ar    1  UNL1       -0.3039
     35 C         139.7421  140.9220  169.8057 C.3     1  UNL1        0.0588
     36 C         138.4235  140.2163  169.9214 C.3     1  UNL1        0.0080
     37 C         139.8747  142.3435  170.2656 C.3     1  UNL1        0.0080
@<TRIPOS>BOND
     1    29    30    1
     2    30    31   ar
     3    31    32   ar
     4    32    33   ar
     5    33    35    1
     6    35    36    1
     7    35    37    1
     8    33    34   ar
     9    34    23    1
    10    23    24    1
    11    24    25    1
    12    25    26    1
    13    26    21    1
    14    21    22    1
    15    21    20    1
    16     1    20    1
    17     1     8    1
    18     8     9   am
    19     9    10    2
    20     9    12    1
    21    12    13    1
    22    13    14    1
    23    14    15    1
    24    15    16    1
    25    15    17    1
    26    15    18    1
    27    18    19    1
    28     1     2    1
    29     2     3   ar
    30     3     4   ar
    31     4     5   ar
    32     5     6   ar
    33     6     7   ar
    34    26    27    1
    35    27    28    1
    36    34    30   ar
    37    28    23    1
    38    19    12    1
    39     7     2   ar
    40     8    11    1
@<TRIPOS>MOLECULE
*****
 37 40 0 0 0
SMALL
GASTEIGER

@<TRIPOS>ATOM
      1 C         139.7056  143.3003  159.0476 C.3     1  UNL1        0.0954
      2 C         139.8500  144.1420  157.8145 C.ar    1  UNL1       -0.0045
      3 C         140.3419  145.5549  157.9242 C.ar    1  UNL1       -0.0027
      4 C         140.4863  146.3966  156.6910 C.ar    1  UNL1       -0.0003
      5 C         140.1388  145.8255  155.3482 C.ar    1  UNL1       -0.0000
      6 C         139.6470  144.4127  155.2385 C.ar    1  UNL1       -0.0003
      7 C         139.5026  143.5709  156.4717 C.ar    1  UNL1       -0.0027
      8 N         140.8159  143.2490  160.0550 N.am    1  UNL1       -0.3022
      9 C         140.7292  144.0674  161.3090 C.2     1  UNL1        0.2222
     10 O         139.5322  144.9371  161.5558 O.2     1  UNL1       -0.2751
     11 H         141.6015  142.6782  159.8930 H       1  UNL1        0.1497
     12 C         141.8395  144.0161  162.3163 C.3     1  UNL1        0.0769
     13 C         142.6989  142.7914  162.4235 C.3     1  UNL1        0.0147
     14 C         143.8092  142.7402  163.4308 C.3     1  UNL1        0.0671
     15 C         144.0601  143.9136  164.3308 C.3     1  UNL1        0.2640
     16 F         144.6848  144.7643  165.3967 F       1  UNL1       -0.2043
     17 F         145.1364  142.9843  164.8082 F       1  UNL1       -0.2043
     18 C         143.2007  145.1383  164.2236 C.3     1  UNL1        0.0671
     19 C         142.0904  145.1896  163.2163 C.3     1  UNL1        0.0147
     20 C         138.4510  142.5098  159.2734 C.3     1  UNL1        0.0401
     21 C         138.5198  141.1676  159.9396 C.3     1  UNL1        0.0595
     22 C         138.3344  139.9183  159.1304 C.3     1  UNL1        0.0174
     23 C         139.2824  140.8891  164.3657 C.3     1  UNL1        0.0905
     24 C         138.0946  141.6499  163.8558 C.3     1  UNL1        0.0400
     25 C         137.8404  141.7428  162.3804 C.3     1  UNL1        0.0740
     26 N         138.7741  141.0747  161.4150 N.3     1  UNL1       -0.2738
     27 C         139.9619  140.3138  161.9249 C.3     1  UNL1        0.0740
     28 C         140.2161  140.2210  163.4003 C.3     1  UNL1        0.0400
     29 C         140.8210  143.1142  166.1909 C.3     1  UNL1        0.0738
     30 C         140.2439  141.8189  166.6801 C.ar    1  UNL1        0.1433
     31 N         140.2726  141.3191  168.0940 N.ar    1  UNL1       -0.1337
     32 N         139.5832  139.9873  168.1290 N.ar    1  UNL1       -0.1337
     33 C         139.1284  139.6642  166.7366 C.ar    1  UNL1        0.1425
     34 N         139.5367  140.7962  165.8411 N.ar    1  UNL1       -0.3039
     35 C         138.3941  138.4264  166.3140 C.3     1  UNL1        0.0588
     36 C         138.8516  137.6571  165.1104 C.3     1  UNL1        0.0080
     37 C         137.2022  137.9578  167.0950 C.3     1  UNL1        0.0080
@<TRIPOS>BOND
     1    29    30    1
     2    30    31   ar
     3    31    32   ar
     4    32    33   ar
     5    33    35    1
     6    35    36    1
     7    35    37    1
     8    33    34   ar
     9    34    23    1
    10    23    24    1
    11    24    25    1
    12    25    26    1
    13    26    21    1
    14    21    22    1
    15    21    20    1
    16     1    20    1
    17     1     8    1
    18     8     9   am
    19     9    10    2
    20     9    12    1
    21    12    13    1
    22    13    14    1
    23    14    15    1
    24    15    16    1
    25    15    17    1
    26    15    18    1
    27    18    19    1
    28     1     2    1
    29     2     3   ar
    30     3     4   ar
    31     4     5   ar
    32     5     6   ar
    33     6     7   ar
    34    26    27    1
    35    27    28    1
    36    34    30   ar
    37    28    23    1
    38    19    12    1
    39     7     2   ar
    40     8    11    1
@<TRIPOS>MOLECULE
*****
 37 40 0 0 0
SMALL
GASTEIGER

@<TRIPOS>ATOM
      1 C         143.2578  142.2720  161.6269 C.3     1  UNL1        0.0954
      2 C         142.6616  140.9283  161.9252 C.ar    1  UNL1       -0.0045
      3 C         141.1742  140.7787  162.0501 C.ar    1  UNL1       -0.0027
      4 C         140.5780  139.4350  162.3484 C.ar    1  UNL1       -0.0003
      5 C         141.4692  138.2408  162.5218 C.ar    1  UNL1       -0.0000
      6 C         142.9564  138.3905  162.3969 C.ar    1  UNL1       -0.0003
      7 C         143.5526  139.7342  162.0986 C.ar    1  UNL1       -0.0027
      8 N         142.9796  142.9411  160.3134 N.am    1  UNL1       -0.3022
      9 C         141.8724  143.9470  160.2038 C.2     1  UNL1        0.2222
     10 O         141.0433  144.2840  161.4076 O.2     1  UNL1       -0.2751
     11 H         143.5237  142.7199  159.5234 H       1  UNL1        0.1497
     12 C         141.5942  144.6160  158.8905 C.3     1  UNL1        0.0769
     13 C         142.5019  144.3777  157.7203 C.3     1  UNL1        0.0147
     14 C         142.2238  145.0468  156.4069 C.3     1  UNL1        0.0671
     15 C         141.0379  145.9541  156.2636 C.3     1  UNL1        0.2640
     16 F         140.0479  146.8918  155.6387 F       1  UNL1       -0.2043
     17 F         141.6018  146.0415  154.8765 F       1  UNL1       -0.2043
     18 C         140.1302  146.1924  157.4338 C.3     1  UNL1        0.0671
     19 C         140.4084  145.5234  158.7472 C.3     1  UNL1        0.0147
     20 C         144.1321  142.9466  162.6419 C.3     1  UNL1        0.0401
     21 C         143.5232  143.8436  163.6786 C.3     1  UNL1        0.0595
     22 C         143.7247  145.3278  163.5979 C.3     1  UNL1        0.0174
     23 C         141.0919  142.0820  167.0304 C.3     1  UNL1        0.0905
     24 C         140.4104  142.8244  165.9195 C.3     1  UNL1        0.0400
     25 C         141.2208  143.4116  164.8022 C.3     1  UNL1        0.0740
     26 N         142.7128  143.2564  164.7959 N.3     1  UNL1       -0.2738
     27 C         143.3943  142.5139  165.9069 C.3     1  UNL1        0.0740
     28 C         142.5838  141.9267  167.0241 C.3     1  UNL1        0.0400
     29 C         140.8003  143.3102  170.0398 C.3     1  UNL1        0.0738
     30 C         140.1475  142.0593  169.5310 C.ar    1  UNL1        0.1433
     31 N         139.2459  141.1533  170.3161 N.ar    1  UNL1       -0.1337
     32 N         138.8227  140.0287  169.4181 N.ar    1  UNL1       -0.1337
     33 C         139.4627  140.2398  168.0780 C.ar    1  UNL1        0.1425
     34 N         140.2814  141.4947  168.1478 N.ar    1  UNL1       -0.3039
     35 C         139.3107  139.3518  166.8787 C.3     1  UNL1        0.0588
     36 C         137.9689  138.7738  166.5387 C.3     1  UNL1        0.0080
     37 C         140.5004  139.0417  166.0194 C.3     1  UNL1        0.0080
@<TRIPOS>BOND
     1    29    30    1
     2    30    31   ar
     3    31    32   ar
     4    32    33   ar
     5    33    35    1
     6    35    36    1
     7    35    37    1
     8    33    34   ar
     9    34    23    1
    10    23    24    1
    11    24    25    1
    12    25    26    1
    13    26    21    1
    14    21    22    1
    15    21    20    1
    16     1    20    1
    17     1     8    1
    18     8     9   am
    19     9    10    2
    20     9    12    1
    21    12    13    1
    22    13    14    1
    23    14    15    1
    24    15    16    1
    25    15    17    1
    26    15    18    1
    27    18    19    1
    28     1     2    1
    29     2     3   ar
    30     3     4   ar
    31     4     5   ar
    32     5     6   ar
    33     6     7   ar
    34    26    27    1
    35    27    28    1
    36    34    30   ar
    37    28    23    1
    38    19    12    1
    39     7     2   ar
    40     8    11    1
