@<TRIPOS>MOLECULE
*****
 30 34 0 0 0
SMALL
GASTEIGER

@<TRIPOS>ATOM
      1 C         143.3936  141.4500  160.3447 C.3     1  UNL1        0.1161
      2 C         143.7613  140.5812  161.5109 C.3     1  UNL1        0.0510
      3 C         143.0528  140.7472  162.8225 C.2     1  UNL1       -0.0044
      4 C         141.9767  141.7819  162.9680 C.2     1  UNL1        0.0689
      5 N         141.4571  141.7158  164.3736 N.2     1  UNL1       -0.2526
      6 C         142.2120  140.6401  165.0968 C.2     1  UNL1        0.0627
      7 C         142.1288  140.1284  166.5043 C.3     1  UNL1        0.0717
      8 C         143.0319  139.0181  166.9533 C.2     1  UNL1       -0.0198
      9 C         144.0182  138.4195  165.9947 C.2     1  UNL1       -0.0042
     10 C         144.1014  138.9312  164.5871 C.2     1  UNL1        0.0006
     11 C         143.1983  140.0415  164.1382 C.2     1  UNL1        0.0111
     12 C         141.6090  142.6507  161.8018 C.3     1  UNL1        0.0949
     13 N         142.3175  142.4847  160.4901 N.3     1  UNL1       -0.2887
     14 H         142.7429  143.3851  160.2692 H       1  UNL1        0.1239
     15 C         145.5117  141.7014  157.1018 C.ar    1  UNL1        0.0531
     16 C         144.8729  140.3555  156.9272 C.ar    1  UNL1        0.1126
     17 N         144.0017  140.0975  158.1207 N.ar    1  UNL1       -0.2286
     18 C         144.1021  141.2840  159.0329 C.ar    1  UNL1        0.1316
     19 N         145.0354  142.2752  158.4033 N.ar    1  UNL1       -0.3430
     20 H         145.2904  143.1490  158.7783 H       1  UNL1        0.1668
     21 C         145.6801  141.8016  154.9895 C.3     1  UNL1        0.0059
     22 C         146.4604  142.3581  156.1434 C.3     1  UNL1        0.0349
     23 C         147.2408  142.9147  157.2972 C.3     1  UNL1        0.0059
     24 C         147.4091  143.0150  155.1849 C.3     1  UNL1        0.0059
     25 C         140.5329  143.6855  161.9472 C.3     1  UNL1        0.0252
     26 C         140.8128  145.1144  161.5871 C.3     1  UNL1        0.0339
     27 C         139.7366  146.1492  161.7326 C.3     1  UNL1        0.1422
     28 O         138.3805  145.7550  162.2382 O.3     1  UNL1       -0.3538
     29 C         138.1006  144.3260  162.5984 C.3     1  UNL1        0.1422
     30 C         139.1767  143.2913  162.4529 C.3     1  UNL1        0.0339
@<TRIPOS>BOND
     1    21    22    1
     2    22    23    1
     3    22    24    1
     4    22    15    1
     5    15    16   ar
     6    16    17   ar
     7    17    18   ar
     8    18     1    1
     9     1     2    1
    10     2     3    1
    11     3     4    2
    12     4     5    1
    13     5     6    2
    14     6     7    1
    15     7     8    1
    16     8     9    2
    17     9    10    1
    18    10    11    2
    19     4    12    1
    20    12    25    1
    21    25    26    1
    22    26    27    1
    23    27    28    1
    24    28    29    1
    25    29    30    1
    26    12    13    1
    27    18    19   ar
    28    19    15   ar
    29    13     1    1
    30    11     3    1
    31    30    25    1
    32    11     6    1
    33    13    14    1
    34    19    20    1
@<TRIPOS>MOLECULE
*****
 30 34 0 0 0
SMALL
GASTEIGER

@<TRIPOS>ATOM
      1 C         141.1236  139.2297  160.5728 C.3     1  UNL1        0.1161
      2 C         140.3256  138.5897  161.6699 C.3     1  UNL1        0.0510
      3 C         140.1912  139.2750  162.9974 C.2     1  UNL1       -0.0044
      4 C         140.8548  140.6003  163.2278 C.2     1  UNL1        0.0689
      5 N         140.5480  141.0347  164.6303 N.2     1  UNL1       -0.2526
      6 C         139.6947  139.9779  165.2667 C.2     1  UNL1        0.0627
      7 C         139.0900  139.8654  166.6348 C.3     1  UNL1        0.0717
      8 C         138.2648  138.6653  166.9936 C.2     1  UNL1       -0.0198
      9 C         138.0443  137.5777  165.9844 C.2     1  UNL1       -0.0042
     10 C         138.6490  137.6902  164.6164 C.2     1  UNL1        0.0006
     11 C         139.4742  138.8903  164.2575 C.2     1  UNL1        0.0111
     12 C         141.6528  141.2403  162.1307 C.3     1  UNL1        0.0949
     13 N         141.7872  140.5550  160.8032 N.3     1  UNL1       -0.2887
     14 H         142.7850  140.4165  160.6430 H       1  UNL1        0.1239
     15 C         142.2001  137.4039  157.3211 C.ar    1  UNL1        0.0531
     16 C         140.7290  137.5754  157.0838 C.ar    1  UNL1        0.1126
     17 N         140.1467  138.2802  158.2730 N.ar    1  UNL1       -0.2286
     18 C         141.2579  138.5443  159.2452 C.ar    1  UNL1        0.1316
     19 N         142.5270  138.0027  158.6570 N.ar    1  UNL1       -0.3430
     20 H         143.4181  138.0347  159.0744 H       1  UNL1        0.1668
     21 C         143.5981  138.0965  155.8837 C.3     1  UNL1        0.0059
     22 C         143.1735  136.7487  156.3867 C.3     1  UNL1        0.0349
     23 C         142.7490  135.4007  156.8898 C.3     1  UNL1        0.0059
     24 C         144.1469  136.0933  155.4523 C.3     1  UNL1        0.0059
     25 C         142.3165  142.5656  162.3611 C.3     1  UNL1        0.0252
     26 C         143.8071  142.6878  162.2477 C.3     1  UNL1        0.0339
     27 C         144.4707  144.0132  162.4781 C.3     1  UNL1        0.1422
     28 O         143.6436  145.2164  162.8219 O.3     1  UNL1       -0.3538
     29 C         142.1529  145.0942  162.9352 C.3     1  UNL1        0.1422
     30 C         141.4893  143.7689  162.7048 C.3     1  UNL1        0.0339
@<TRIPOS>BOND
     1    21    22    1
     2    22    23    1
     3    22    24    1
     4    22    15    1
     5    15    16   ar
     6    16    17   ar
     7    17    18   ar
     8    18     1    1
     9     1     2    1
    10     2     3    1
    11     3     4    2
    12     4     5    1
    13     5     6    2
    14     6     7    1
    15     7     8    1
    16     8     9    2
    17     9    10    1
    18    10    11    2
    19     4    12    1
    20    12    25    1
    21    25    26    1
    22    26    27    1
    23    27    28    1
    24    28    29    1
    25    29    30    1
    26    12    13    1
    27    18    19   ar
    28    19    15   ar
    29    13     1    1
    30    11     3    1
    31    30    25    1
    32    11     6    1
    33    13    14    1
    34    19    20    1
@<TRIPOS>MOLECULE
*****
 30 34 0 0 0
SMALL
GASTEIGER

@<TRIPOS>ATOM
      1 C         142.6554  136.8628  158.1399 C.3     1  UNL1        0.1161
      2 C         143.3521  135.5538  157.9135 C.3     1  UNL1        0.0510
      3 C         143.0283  134.7316  156.7015 C.2     1  UNL1       -0.0044
      4 C         142.0077  135.2183  155.7159 C.2     1  UNL1        0.0689
      5 N         141.8970  134.1985  154.6215 N.2     1  UNL1       -0.2526
      6 C         142.8492  133.0814  154.9307 C.2     1  UNL1        0.0627
      7 C         143.1699  131.8069  154.2079 C.3     1  UNL1        0.0717
      8 C         144.1898  130.8618  154.7705 C.2     1  UNL1       -0.0198
      9 C         144.8889  131.1913  156.0561 C.2     1  UNL1       -0.0042
     10 C         144.5682  132.4658  156.7790 C.2     1  UNL1        0.0006
     11 C         143.5483  133.4109  156.2163 C.2     1  UNL1        0.0111
     12 C         141.3110  136.5273  155.9422 C.3     1  UNL1        0.0949
     13 N         141.6349  137.3495  157.1542 N.3     1  UNL1       -0.2887
     14 H         140.7628  137.4712  157.6692 H       1  UNL1        0.1239
     15 C         143.1445  138.4391  161.6530 C.ar    1  UNL1        0.0531
     16 C         143.8112  139.4616  160.7811 C.ar    1  UNL1        0.1126
     17 N         143.7091  138.9955  159.3590 N.ar    1  UNL1       -0.2286
     18 C         142.9794  137.6850  159.3520 C.ar    1  UNL1        0.1316
     19 N         142.6305  137.3411  160.7697 N.ar    1  UNL1       -0.3430
     20 H         142.1486  136.5361  161.0681 H       1  UNL1        0.1668
     21 C         141.7360  137.7231  163.0684 C.3     1  UNL1        0.0059
     22 C         143.0148  138.5032  163.1459 C.3     1  UNL1        0.0349
     23 C         144.2936  139.2835  163.2236 C.3     1  UNL1        0.0059
     24 C         142.8851  138.5675  164.6390 C.3     1  UNL1        0.0059
     25 C         140.2904  137.0140  154.9566 C.3     1  UNL1        0.0252
     26 C         140.7079  137.3781  153.5627 C.3     1  UNL1        0.0339
     27 C         139.6873  137.8648  152.5770 C.3     1  UNL1        0.1422
     28 O         138.2492  137.9875  152.9854 O.3     1  UNL1       -0.3538
     29 C         137.8316  137.6235  154.3794 C.3     1  UNL1        0.1422
     30 C         138.8522  137.1368  155.3649 C.3     1  UNL1        0.0339
@<TRIPOS>BOND
     1    21    22    1
     2    22    23    1
     3    22    24    1
     4    22    15    1
     5    15    16   ar
     6    16    17   ar
     7    17    18   ar
     8    18     1    1
     9     1     2    1
    10     2     3    1
    11     3     4    2
    12     4     5    1
    13     5     6    2
    14     6     7    1
    15     7     8    1
    16     8     9    2
    17     9    10    1
    18    10    11    2
    19     4    12    1
    20    12    25    1
    21    25    26    1
    22    26    27    1
    23    27    28    1
    24    28    29    1
    25    29    30    1
    26    12    13    1
    27    18    19   ar
    28    19    15   ar
    29    13     1    1
    30    11     3    1
    31    30    25    1
    32    11     6    1
    33    13    14    1
    34    19    20    1
@<TRIPOS>MOLECULE
*****
 30 34 0 0 0
SMALL
GASTEIGER

@<TRIPOS>ATOM
      1 C         140.0958  139.2776  159.9609 C.3     1  UNL1        0.1161
      2 C         139.7262  138.5289  161.2070 C.3     1  UNL1        0.0510
      3 C         139.3346  139.2799  162.4449 C.2     1  UNL1       -0.0044
      4 C         139.3126  140.7797  162.4368 C.2     1  UNL1        0.0689
      5 N         138.8879  141.2444  163.7983 N.2     1  UNL1       -0.2526
      6 C         138.6473  140.0318  164.6478 C.2     1  UNL1        0.0627
      7 C         138.2126  139.8764  166.0750 C.3     1  UNL1        0.0717
      8 C         138.0539  138.5068  166.6657 C.2     1  UNL1       -0.0198
      9 C         138.3300  137.2927  165.8293 C.2     1  UNL1       -0.0042
     10 C         138.7647  137.4481  164.4022 C.2     1  UNL1        0.0006
     11 C         138.9234  138.8177  163.8114 C.2     1  UNL1        0.0111
     12 C         139.6822  141.5285  161.1907 C.3     1  UNL1        0.0949
     13 N         140.0738  140.7774  159.9527 N.3     1  UNL1       -0.2887
     14 H         141.0151  141.0844  159.7075 H       1  UNL1        0.1239
     15 C         141.8092  137.3990  157.0282 C.ar    1  UNL1        0.0531
     16 C         140.3705  137.3423  156.6076 C.ar    1  UNL1        0.1126
     17 N         139.5535  138.0392  157.6550 N.ar    1  UNL1       -0.2286
     18 C         140.4874  138.5265  158.7229 C.ar    1  UNL1        0.1316
     19 N         141.8814  138.1309  158.3355 N.ar    1  UNL1       -0.3430
     20 H         142.7000  138.3186  158.8492 H       1  UNL1        0.1668
     21 C         143.5046  138.2075  156.0423 C.3     1  UNL1        0.0059
     22 C         142.9716  136.8247  156.2739 C.3     1  UNL1        0.0349
     23 C         142.4386  135.4418  156.5055 C.3     1  UNL1        0.0059
     24 C         144.1340  136.2502  155.5197 C.3     1  UNL1        0.0059
     25 C         139.6603  143.0283  161.1825 C.3     1  UNL1        0.0252
     26 C         138.9362  143.7736  162.2641 C.3     1  UNL1        0.0339
     27 C         138.9143  145.2735  162.2559 C.3     1  UNL1        0.1422
     28 O         139.6164  146.0279  161.1661 O.3     1  UNL1       -0.3538
     29 C         140.3406  145.2825  160.0844 C.3     1  UNL1        0.1422
     30 C         140.3625  143.7828  160.0926 C.3     1  UNL1        0.0339
@<TRIPOS>BOND
     1    21    22    1
     2    22    23    1
     3    22    24    1
     4    22    15    1
     5    15    16   ar
     6    16    17   ar
     7    17    18   ar
     8    18     1    1
     9     1     2    1
    10     2     3    1
    11     3     4    2
    12     4     5    1
    13     5     6    2
    14     6     7    1
    15     7     8    1
    16     8     9    2
    17     9    10    1
    18    10    11    2
    19     4    12    1
    20    12    25    1
    21    25    26    1
    22    26    27    1
    23    27    28    1
    24    28    29    1
    25    29    30    1
    26    12    13    1
    27    18    19   ar
    28    19    15   ar
    29    13     1    1
    30    11     3    1
    31    30    25    1
    32    11     6    1
    33    13    14    1
    34    19    20    1
@<TRIPOS>MOLECULE
*****
 30 34 0 0 0
SMALL
GASTEIGER

@<TRIPOS>ATOM
      1 C         141.6247  139.5959  160.8177 C.3     1  UNL1        0.1161
      2 C         142.1340  139.0368  162.1131 C.3     1  UNL1        0.0510
      3 C         141.9748  139.8202  163.3823 C.2     1  UNL1       -0.0044
      4 C         141.3065  141.1628  163.3561 C.2     1  UNL1        0.0689
      5 N         141.2922  141.7008  164.7562 N.2     1  UNL1       -0.2526
      6 C         141.9517  140.6907  165.6477 C.2     1  UNL1        0.0627
      7 C         142.2226  140.6792  167.1230 C.3     1  UNL1        0.0717
      8 C         142.9153  139.5053  167.7491 C.2     1  UNL1       -0.0198
      9 C         143.3372  138.3430  166.9000 C.2     1  UNL1       -0.0042
     10 C         143.0663  138.3546  165.4248 C.2     1  UNL1        0.0006
     11 C         142.3736  139.5284  164.7986 C.2     1  UNL1        0.0111
     12 C         140.7973  141.7220  162.0607 C.3     1  UNL1        0.0949
     13 N         140.9564  140.9386  160.7915 N.3     1  UNL1       -0.2887
     14 H         141.4936  141.5224  160.1505 H       1  UNL1        0.1239
     15 C         141.2984  137.6947  157.4496 C.ar    1  UNL1        0.0531
     16 C         142.7592  137.5188  157.7413 C.ar    1  UNL1        0.1126
     17 N         143.0593  138.2097  159.0386 N.ar    1  UNL1       -0.2286
     18 C         141.7839  138.8124  159.5485 C.ar    1  UNL1        0.1316
     19 N         140.6956  138.4942  158.5665 N.ar    1  UNL1       -0.3430
     20 H         139.7515  138.7628  158.6418 H       1  UNL1        0.1668
     21 C         139.5465  138.2531  156.3917 C.3     1  UNL1        0.0059
     22 C         140.5685  137.1642  156.2513 C.3     1  UNL1        0.0349
     23 C         141.5906  136.0752  156.1109 C.3     1  UNL1        0.0059
     24 C         139.8387  136.6336  155.0530 C.3     1  UNL1        0.0059
     25 C         140.1290  143.0646  162.0345 C.3     1  UNL1        0.0252
     26 C         138.8234  143.2665  162.7447 C.3     1  UNL1        0.0339
     27 C         138.1551  144.6092  162.7185 C.3     1  UNL1        0.1422
     28 O         138.7925  145.7499  161.9820 O.3     1  UNL1       -0.3538
     29 C         140.0981  145.5481  161.2717 C.3     1  UNL1        0.1422
     30 C         140.7664  144.2055  161.2980 C.3     1  UNL1        0.0339
@<TRIPOS>BOND
     1    21    22    1
     2    22    23    1
     3    22    24    1
     4    22    15    1
     5    15    16   ar
     6    16    17   ar
     7    17    18   ar
     8    18     1    1
     9     1     2    1
    10     2     3    1
    11     3     4    2
    12     4     5    1
    13     5     6    2
    14     6     7    1
    15     7     8    1
    16     8     9    2
    17     9    10    1
    18    10    11    2
    19     4    12    1
    20    12    25    1
    21    25    26    1
    22    26    27    1
    23    27    28    1
    24    28    29    1
    25    29    30    1
    26    12    13    1
    27    18    19   ar
    28    19    15   ar
    29    13     1    1
    30    11     3    1
    31    30    25    1
    32    11     6    1
    33    13    14    1
    34    19    20    1
@<TRIPOS>MOLECULE
*****
 30 34 0 0 0
SMALL
GASTEIGER

@<TRIPOS>ATOM
      1 C         143.0934  139.2533  158.0244 C.3     1  UNL1        0.1161
      2 C         142.3194  140.4361  157.5223 C.3     1  UNL1        0.0510
      3 C         142.1769  141.6582  158.3803 C.2     1  UNL1       -0.0044
      4 C         142.8084  141.6975  159.7404 C.2     1  UNL1        0.0689
      5 N         142.5002  143.0301  160.3561 N.2     1  UNL1       -0.2526
      6 C         141.6784  143.8144  159.3765 C.2     1  UNL1        0.0627
      7 C         141.0862  145.1911  159.4388 C.3     1  UNL1        0.0717
      8 C         140.2941  145.7199  158.2799 C.2     1  UNL1       -0.0198
      9 C         140.0943  144.8720  157.0588 C.2     1  UNL1       -0.0042
     10 C         140.6865  143.4953  156.9966 C.2     1  UNL1        0.0006
     11 C         141.4786  142.9665  158.1554 C.2     1  UNL1        0.0111
     12 C         143.5823  140.5147  160.2424 C.3     1  UNL1        0.0949
     13 N         143.7248  139.2926  159.3845 N.3     1  UNL1       -0.2887
     14 H         143.3327  138.5138  159.9138 H       1  UNL1        0.1239
     15 C         142.9698  135.7853  156.2857 C.ar    1  UNL1        0.0531
     16 C         143.9407  136.5160  155.4063 C.ar    1  UNL1        0.1126
     17 N         144.1051  137.9040  155.9505 N.ar    1  UNL1       -0.2286
     18 C         143.2359  138.0311  157.1664 C.ar    1  UNL1        0.1316
     19 N         142.5342  136.7217  157.3735 N.ar    1  UNL1       -0.3430
     20 H         141.8993  136.5134  158.0965 H       1  UNL1        0.1668
     21 C         141.6964  134.7781  154.9203 C.3     1  UNL1        0.0059
     22 C         142.5144  134.3671  156.1085 C.3     1  UNL1        0.0349
     23 C         143.3325  133.9559  157.2968 C.3     1  UNL1        0.0059
     24 C         142.0591  132.9488  155.9314 C.3     1  UNL1        0.0059
     25 C         144.2137  140.5540  161.6025 C.3     1  UNL1        0.0252
     26 C         144.0159  139.4119  162.5545 C.3     1  UNL1        0.0339
     27 C         144.6474  139.4513  163.9146 C.3     1  UNL1        0.1422
     28 O         145.4767  140.6327  164.3226 O.3     1  UNL1       -0.3538
     29 C         145.6745  141.7749  163.3705 C.3     1  UNL1        0.1422
     30 C         145.0431  141.7355  162.0105 C.3     1  UNL1        0.0339
@<TRIPOS>BOND
     1    21    22    1
     2    22    23    1
     3    22    24    1
     4    22    15    1
     5    15    16   ar
     6    16    17   ar
     7    17    18   ar
     8    18     1    1
     9     1     2    1
    10     2     3    1
    11     3     4    2
    12     4     5    1
    13     5     6    2
    14     6     7    1
    15     7     8    1
    16     8     9    2
    17     9    10    1
    18    10    11    2
    19     4    12    1
    20    12    25    1
    21    25    26    1
    22    26    27    1
    23    27    28    1
    24    28    29    1
    25    29    30    1
    26    12    13    1
    27    18    19   ar
    28    19    15   ar
    29    13     1    1
    30    11     3    1
    31    30    25    1
    32    11     6    1
    33    13    14    1
    34    19    20    1
@<TRIPOS>MOLECULE
*****
 30 34 0 0 0
SMALL
GASTEIGER

@<TRIPOS>ATOM
      1 C         140.4387  144.5976  158.0414 C.3     1  UNL1        0.1161
      2 C         139.6641  143.5040  157.3675 C.3     1  UNL1        0.0510
      3 C         138.7400  143.8297  156.2317 C.2     1  UNL1       -0.0044
      4 C         138.5906  145.2490  155.7698 C.2     1  UNL1        0.0689
      5 N         137.6117  145.2659  154.6334 N.2     1  UNL1       -0.2526
      6 C         137.1562  143.8571  154.3929 C.2     1  UNL1        0.0627
      7 C         136.1965  143.2678  153.4021 C.3     1  UNL1        0.0717
      8 C         135.9341  141.7910  153.3992 C.2     1  UNL1       -0.0198
      9 C         136.6315  140.9034  154.3870 C.2     1  UNL1       -0.0042
     10 C         137.5912  141.4926  155.3778 C.2     1  UNL1        0.0006
     11 C         137.8535  142.9695  155.3808 C.2     1  UNL1        0.0111
     12 C         139.3652  146.3425  156.4437 C.3     1  UNL1        0.0949
     13 N         140.2893  146.0168  157.5795 N.3     1  UNL1       -0.2887
     14 H         139.9687  146.5561  158.3838 H       1  UNL1        0.1239
     15 C         142.4840  144.3263  161.3290 C.ar    1  UNL1        0.0531
     16 C         143.0854  143.2148  160.5210 C.ar    1  UNL1        0.1126
     17 N         142.3924  143.1812  159.1911 N.ar    1  UNL1       -0.2286
     18 C         141.3628  144.2718  159.1773 C.ar    1  UNL1        0.1316
     19 N         141.4194  144.9796  160.4985 N.ar    1  UNL1       -0.3430
     20 H         140.8566  145.7395  160.7726 H       1  UNL1        0.1668
     21 C         141.5022  145.2650  162.9585 C.3     1  UNL1        0.0059
     22 C         142.8781  144.7161  162.7228 C.3     1  UNL1        0.0349
     23 C         144.2542  144.1672  162.4873 C.3     1  UNL1        0.0059
     24 C         143.2723  145.1059  164.1167 C.3     1  UNL1        0.0059
     25 C         139.2158  147.7618  155.9818 C.3     1  UNL1        0.0252
     26 C         138.5230  148.7656  156.8548 C.3     1  UNL1        0.0339
     27 C         138.3736  150.1849  156.3929 C.3     1  UNL1        0.1422
     28 O         138.9170  150.6003  155.0579 O.3     1  UNL1       -0.3538
     29 C         139.6098  149.5964  154.1848 C.3     1  UNL1        0.1422
     30 C         139.7592  148.1772  154.6467 C.3     1  UNL1        0.0339
@<TRIPOS>BOND
     1    21    22    1
     2    22    23    1
     3    22    24    1
     4    22    15    1
     5    15    16   ar
     6    16    17   ar
     7    17    18   ar
     8    18     1    1
     9     1     2    1
    10     2     3    1
    11     3     4    2
    12     4     5    1
    13     5     6    2
    14     6     7    1
    15     7     8    1
    16     8     9    2
    17     9    10    1
    18    10    11    2
    19     4    12    1
    20    12    25    1
    21    25    26    1
    22    26    27    1
    23    27    28    1
    24    28    29    1
    25    29    30    1
    26    12    13    1
    27    18    19   ar
    28    19    15   ar
    29    13     1    1
    30    11     3    1
    31    30    25    1
    32    11     6    1
    33    13    14    1
    34    19    20    1
@<TRIPOS>MOLECULE
*****
 30 34 0 0 0
SMALL
GASTEIGER

@<TRIPOS>ATOM
      1 C         143.1683  142.8982  157.3116 C.3     1  UNL1        0.1161
      2 C         143.2644  143.1836  158.7810 C.3     1  UNL1        0.0510
      3 C         142.1600  143.9242  159.4751 C.2     1  UNL1       -0.0044
      4 C         140.9594  144.3794  158.6996 C.2     1  UNL1        0.0689
      5 N         140.0348  145.0835  159.6479 N.2     1  UNL1       -0.2526
      6 C         140.6639  145.0634  161.0095 C.2     1  UNL1        0.0627
      7 C         140.2104  145.6049  162.3327 C.3     1  UNL1        0.0717
      8 C         141.0704  145.4299  163.5492 C.2     1  UNL1       -0.0198
      9 C         142.3839  144.7134  163.4423 C.2     1  UNL1       -0.0042
     10 C         142.8374  144.1719  162.1191 C.2     1  UNL1        0.0006
     11 C         141.9774  144.3469  160.9026 C.2     1  UNL1        0.0111
     12 C         140.8633  144.0940  157.2301 C.3     1  UNL1        0.0949
     13 N         141.9677  143.3534  156.5361 N.3     1  UNL1       -0.2887
     14 H         142.3105  143.9636  155.7940 H       1  UNL1        0.1239
     15 C         146.3272  141.6661  155.4225 C.ar    1  UNL1        0.0531
     16 C         145.6175  140.3694  155.6768 C.ar    1  UNL1        0.1126
     17 N         144.3477  140.6731  156.4155 N.ar    1  UNL1       -0.2286
     18 C         144.2728  142.1575  156.6175 C.ar    1  UNL1        0.1316
     19 N         145.4962  142.7713  156.0039 N.ar    1  UNL1       -0.3430
     20 H         145.7152  143.7309  155.9858 H       1  UNL1        0.1668
     21 C         146.9737  141.4923  153.4095 C.3     1  UNL1        0.0059
     22 C         147.6379  141.8292  154.7115 C.3     1  UNL1        0.0349
     23 C         148.3023  142.1661  156.0136 C.3     1  UNL1        0.0059
     24 C         148.9488  141.9922  154.0007 C.3     1  UNL1        0.0059
     25 C         139.6627  144.5493  156.4546 C.3     1  UNL1        0.0252
     26 C         139.5862  145.9599  155.9505 C.3     1  UNL1        0.0339
     27 C         138.3855  146.4151  155.1750 C.3     1  UNL1        0.1422
     28 O         137.2615  145.4596  154.9037 O.3     1  UNL1       -0.3538
     29 C         137.3380  144.0490  155.4079 C.3     1  UNL1        0.1422
     30 C         138.5386  143.5938  156.1833 C.3     1  UNL1        0.0339
@<TRIPOS>BOND
     1    21    22    1
     2    22    23    1
     3    22    24    1
     4    22    15    1
     5    15    16   ar
     6    16    17   ar
     7    17    18   ar
     8    18     1    1
     9     1     2    1
    10     2     3    1
    11     3     4    2
    12     4     5    1
    13     5     6    2
    14     6     7    1
    15     7     8    1
    16     8     9    2
    17     9    10    1
    18    10    11    2
    19     4    12    1
    20    12    25    1
    21    25    26    1
    22    26    27    1
    23    27    28    1
    24    28    29    1
    25    29    30    1
    26    12    13    1
    27    18    19   ar
    28    19    15   ar
    29    13     1    1
    30    11     3    1
    31    30    25    1
    32    11     6    1
    33    13    14    1
    34    19    20    1
@<TRIPOS>MOLECULE
*****
 30 34 0 0 0
SMALL
GASTEIGER

@<TRIPOS>ATOM
      1 C         144.1591  141.9036  158.9271 C.3     1  UNL1        0.1161
      2 C         143.4182  140.6325  158.6348 C.3     1  UNL1        0.0510
      3 C         143.6940  139.8780  157.3681 C.2     1  UNL1       -0.0044
      4 C         144.7107  140.3946  156.3937 C.2     1  UNL1        0.0689
      5 N         144.7695  139.4419  155.2365 N.2     1  UNL1       -0.2526
      6 C         143.7891  138.3366  155.4957 C.2     1  UNL1        0.0627
      7 C         143.4158  137.1196  154.7024 C.3     1  UNL1        0.0717
      8 C         142.3778  136.1720  155.2265 C.2     1  UNL1       -0.0198
      9 C         141.7131  136.4415  156.5439 C.2     1  UNL1       -0.0042
     10 C         142.0864  137.6586  157.3372 C.2     1  UNL1        0.0006
     11 C         143.1244  138.6061  156.8131 C.2     1  UNL1        0.0111
     12 C         145.4516  141.6657  156.6860 C.3     1  UNL1        0.0949
     13 N         145.1758  142.4202  157.9527 N.3     1  UNL1       -0.2887
     14 H         144.8727  143.3548  157.6787 H       1  UNL1        0.1239
     15 C         143.9620  143.3965  162.5045 C.ar    1  UNL1        0.0531
     16 C         142.9555  144.2419  161.7818 C.ar    1  UNL1        0.1126
     17 N         142.9068  143.7855  160.3538 N.ar    1  UNL1       -0.2286
     18 C         143.8833  142.6581  160.1939 C.ar    1  UNL1        0.1316
     19 N         144.5354  142.4177  161.5232 N.ar    1  UNL1       -0.3430
     20 H         145.2196  141.7370  161.7174 H       1  UNL1        0.1668
     21 C         145.0564  142.2000  163.8723 C.3     1  UNL1        0.0059
     22 C         144.3305  143.5100  163.9541 C.3     1  UNL1        0.0349
     23 C         143.6045  144.8202  164.0361 C.3     1  UNL1        0.0059
     24 C         144.6989  143.6236  165.4038 C.3     1  UNL1        0.0059
     25 C         146.4683  142.1822  155.7116 C.3     1  UNL1        0.0252
     26 C         147.8824  141.6856  155.7693 C.3     1  UNL1        0.0339
     27 C         148.8991  142.2023  154.7949 C.3     1  UNL1        0.1422
     28 O         148.5016  143.2155  153.7627 O.3     1  UNL1       -0.3538
     29 C         147.0873  143.7121  153.7050 C.3     1  UNL1        0.1422
     30 C         146.0707  143.1955  154.6794 C.3     1  UNL1        0.0339
@<TRIPOS>BOND
     1    21    22    1
     2    22    23    1
     3    22    24    1
     4    22    15    1
     5    15    16   ar
     6    16    17   ar
     7    17    18   ar
     8    18     1    1
     9     1     2    1
    10     2     3    1
    11     3     4    2
    12     4     5    1
    13     5     6    2
    14     6     7    1
    15     7     8    1
    16     8     9    2
    17     9    10    1
    18    10    11    2
    19     4    12    1
    20    12    25    1
    21    25    26    1
    22    26    27    1
    23    27    28    1
    24    28    29    1
    25    29    30    1
    26    12    13    1
    27    18    19   ar
    28    19    15   ar
    29    13     1    1
    30    11     3    1
    31    30    25    1
    32    11     6    1
    33    13    14    1
    34    19    20    1
