@<TRIPOS>MOLECULE
*****
 30 33 0 0 0
SMALL
GASTEIGER

@<TRIPOS>ATOM
      1 N         138.4857  140.3148  164.0391 N.3     1  UNL1       -0.2679
      2 C         138.7837  141.7757  164.2025 C.3     1  UNL1        0.0978
      3 C         137.6844  142.7294  164.5657 C.3     1  UNL1        0.0224
      4 C         137.9824  144.1904  164.7292 C.3     1  UNL1        0.0065
      5 C         139.3798  144.6977  164.5294 C.3     1  UNL1        0.0277
      6 C         140.4791  143.7440  164.1662 C.ar    1  UNL1       -0.0073
      7 C         141.8766  144.2513  163.9664 C.ar    1  UNL1       -0.0015
      8 C         142.9759  143.2977  163.6032 C.ar    1  UNL1        0.0203
      9 C         142.6778  141.8367  163.4398 C.ar    1  UNL1        0.0985
     10 N         141.2805  141.3294  163.6395 N.ar    1  UNL1       -0.2471
     11 C         140.1811  142.2830  164.0028 C.ar    1  UNL1        0.0695
     12 C         138.1428  139.7660  162.6858 C.3     1  UNL1        0.0725
     13 C         138.4439  138.3333  162.3592 C.3     1  UNL1        0.0187
     14 C         139.8144  137.9428  161.8909 C.3     1  UNL1        0.0183
     15 N         142.0570  138.2298  163.1710 N.3     1  UNL1       -0.3211
     16 C         140.8243  137.4284  162.8734 C.3     1  UNL1        0.0652
     17 H         142.6278  137.7339  163.8556 H       1  UNL1        0.1189
     18 H         141.7887  139.1393  163.5468 H       1  UNL1        0.1189
     19 C         138.5305  139.4025  165.2289 C.3     1  UNL1        0.0886
     20 C         139.6262  139.5460  166.2433 C.3     1  UNL1        0.0749
     21 C         139.3013  139.9795  167.6420 C.3     1  UNL1        0.0447
     22 C         140.3970  140.1230  168.6564 C.ar    1  UNL1       -0.0058
     23 C         140.0721  140.5565  170.0551 C.ar    1  UNL1       -0.0014
     24 C         141.1678  140.7000  171.0694 C.ar    1  UNL1        0.0203
     25 C         142.5884  140.4101  170.6849 C.ar    1  UNL1        0.0985
     26 N         142.9133  139.9766  169.2862 N.ar    1  UNL1       -0.2471
     27 C         141.8176  139.8331  168.2719 C.ar    1  UNL1        0.0710
     28 C         142.1425  139.3996  166.8731 C.3     1  UNL1        0.1148
     29 N         141.0468  139.2561  165.8588 N.3     1  UNL1       -0.2921
     30 H         141.0722  138.2900  165.5326 H       1  UNL1        0.1236
@<TRIPOS>BOND
     1    15    16    1
     2    16    14    1
     3    14    13    1
     4    13    12    1
     5    12     1    1
     6     1    19    1
     7    20    19    1
     8    20    21    1
     9    21    22    1
    10    22    23   ar
    11    23    24   ar
    12    24    25   ar
    13    25    26   ar
    14    26    27   ar
    15    27    28    1
    16    28    29    1
    17     2     1    1
    18     2     3    1
    19     3     4    1
    20     4     5    1
    21     5     6    1
    22     6     7   ar
    23     7     8   ar
    24     8     9   ar
    25     9    10   ar
    26    10    11   ar
    27    29    20    1
    28    11     2    1
    29    27    22   ar
    30    11     6   ar
    31    15    17    1
    32    15    18    1
    33    29    30    1
@<TRIPOS>MOLECULE
*****
 30 33 0 0 0
SMALL
GASTEIGER

@<TRIPOS>ATOM
      1 N         141.5418  140.6440  167.4004 N.3     1  UNL1       -0.2679
      2 C         140.5120  139.7688  166.7497 C.3     1  UNL1        0.0978
      3 C         139.1496  139.6311  167.3619 C.3     1  UNL1        0.0224
      4 C         138.1198  138.7558  166.7112 C.3     1  UNL1        0.0065
      5 C         138.4524  138.0183  165.4481 C.3     1  UNL1        0.0277
      6 C         139.8148  138.1560  164.8358 C.ar    1  UNL1       -0.0073
      7 C         140.1474  137.4184  163.5727 C.ar    1  UNL1       -0.0015
      8 C         141.5098  137.5561  162.9604 C.ar    1  UNL1        0.0203
      9 C         142.5396  138.4314  163.6112 C.ar    1  UNL1        0.0985
     10 N         142.2070  139.1689  164.8742 N.ar    1  UNL1       -0.2471
     11 C         140.8446  139.0312  165.4866 C.ar    1  UNL1        0.0695
     12 C         142.5930  140.0372  168.2817 C.3     1  UNL1        0.0725
     13 C         142.2053  139.4056  169.5859 C.3     1  UNL1        0.0187
     14 C         141.2099  140.0827  170.4806 C.3     1  UNL1        0.0183
     15 N         140.5166  142.1227  171.9324 N.3     1  UNL1       -0.3211
     16 C         141.5451  141.4007  171.1133 C.3     1  UNL1        0.0652
     17 H         140.9123  142.9949  172.2833 H       1  UNL1        0.1189
     18 H         140.2352  141.5366  172.7183 H       1  UNL1        0.1189
     19 C         141.5203  142.1260  167.1699 C.3     1  UNL1        0.0886
     20 C         141.5908  142.6689  165.7734 C.3     1  UNL1        0.0749
     21 C         140.5248  143.5995  165.2757 C.3     1  UNL1        0.0447
     22 C         140.5953  144.1424  163.8792 C.ar    1  UNL1       -0.0058
     23 C         139.5293  145.0729  163.3815 C.ar    1  UNL1       -0.0014
     24 C         139.5999  145.6158  161.9850 C.ar    1  UNL1        0.0203
     25 C         140.7365  145.2282  161.0862 C.ar    1  UNL1        0.0985
     26 N         141.8025  144.2977  161.5838 N.ar    1  UNL1       -0.2471
     27 C         141.7319  143.7548  162.9803 C.ar    1  UNL1        0.0710
     28 C         142.7980  142.8242  163.4780 C.3     1  UNL1        0.1148
     29 N         142.7274  142.2813  164.8745 N.3     1  UNL1       -0.2921
     30 H         143.5859  142.5673  165.3453 H       1  UNL1        0.1236
@<TRIPOS>BOND
     1    15    16    1
     2    16    14    1
     3    14    13    1
     4    13    12    1
     5    12     1    1
     6     1    19    1
     7    20    19    1
     8    20    21    1
     9    21    22    1
    10    22    23   ar
    11    23    24   ar
    12    24    25   ar
    13    25    26   ar
    14    26    27   ar
    15    27    28    1
    16    28    29    1
    17     2     1    1
    18     2     3    1
    19     3     4    1
    20     4     5    1
    21     5     6    1
    22     6     7   ar
    23     7     8   ar
    24     8     9   ar
    25     9    10   ar
    26    10    11   ar
    27    29    20    1
    28    11     2    1
    29    27    22   ar
    30    11     6   ar
    31    15    17    1
    32    15    18    1
    33    29    30    1
@<TRIPOS>MOLECULE
*****
 30 33 0 0 0
SMALL
GASTEIGER

@<TRIPOS>ATOM
      1 N         141.2750  141.2248  167.3111 N.3     1  UNL1       -0.2679
      2 C         142.3548  140.5229  166.5420 C.3     1  UNL1        0.0978
      3 C         142.6737  139.0872  166.8371 C.3     1  UNL1        0.0224
      4 C         143.7534  138.3853  166.0680 C.3     1  UNL1        0.0065
      5 C         144.5142  139.1191  165.0037 C.3     1  UNL1        0.0277
      6 C         144.1953  140.5547  164.7086 C.ar    1  UNL1       -0.0073
      7 C         144.9561  141.2885  163.6442 C.ar    1  UNL1       -0.0015
      8 C         144.6372  142.7242  163.3491 C.ar    1  UNL1        0.0203
      9 C         143.5575  143.4261  164.1182 C.ar    1  UNL1        0.0985
     10 N         142.7967  142.6923  165.1825 N.ar    1  UNL1       -0.2471
     11 C         143.1156  141.2566  165.4777 C.ar    1  UNL1        0.0695
     12 C         141.6310  142.3118  168.2814 C.3     1  UNL1        0.0725
     13 C         140.5553  143.1831  168.8593 C.3     1  UNL1        0.0187
     14 C         140.2269  143.0999  170.3205 C.3     1  UNL1        0.0183
     15 N         142.0093  142.0998  171.9246 N.3     1  UNL1       -0.3211
     16 C         140.7392  141.9529  171.1401 C.3     1  UNL1        0.0652
     17 H         142.2062  141.2296  172.4188 H       1  UNL1        0.1189
     18 H         141.9066  142.8581  172.5990 H       1  UNL1        0.1189
     19 C         139.8394  140.8396  167.1098 C.3     1  UNL1        0.0886
     20 C         139.2444  140.8560  165.7329 C.3     1  UNL1        0.0749
     21 C         139.1548  139.5862  164.9395 C.3     1  UNL1        0.0447
     22 C         138.5598  139.6025  163.5626 C.ar    1  UNL1       -0.0058
     23 C         138.4703  138.3327  162.7692 C.ar    1  UNL1       -0.0014
     24 C         137.8753  138.3491  161.3923 C.ar    1  UNL1        0.0203
     25 C         137.3698  139.6353  160.8090 C.ar    1  UNL1        0.0985
     26 N         137.4594  140.9050  161.6024 N.ar    1  UNL1       -0.2471
     27 C         138.0544  140.8887  162.9792 C.ar    1  UNL1        0.0710
     28 C         138.1439  142.1585  163.7728 C.3     1  UNL1        0.1148
     29 N         138.7389  142.1421  165.1496 N.3     1  UNL1       -0.2921
     30 H         138.0213  142.4915  165.7846 H       1  UNL1        0.1236
@<TRIPOS>BOND
     1    15    16    1
     2    16    14    1
     3    14    13    1
     4    13    12    1
     5    12     1    1
     6     1    19    1
     7    20    19    1
     8    20    21    1
     9    21    22    1
    10    22    23   ar
    11    23    24   ar
    12    24    25   ar
    13    25    26   ar
    14    26    27   ar
    15    27    28    1
    16    28    29    1
    17     2     1    1
    18     2     3    1
    19     3     4    1
    20     4     5    1
    21     5     6    1
    22     6     7   ar
    23     7     8   ar
    24     8     9   ar
    25     9    10   ar
    26    10    11   ar
    27    29    20    1
    28    11     2    1
    29    27    22   ar
    30    11     6   ar
    31    15    17    1
    32    15    18    1
    33    29    30    1
@<TRIPOS>MOLECULE
*****
 30 33 0 0 0
SMALL
GASTEIGER

@<TRIPOS>ATOM
      1 N         139.5895  139.8136  167.1280 N.3     1  UNL1       -0.2679
      2 C         140.8850  140.1544  166.4530 C.3     1  UNL1        0.0978
      3 C         142.0103  139.1627  166.4453 C.3     1  UNL1        0.0224
      4 C         143.3057  139.5035  165.7703 C.3     1  UNL1        0.0065
      5 C         143.4759  140.8360  165.1030 C.3     1  UNL1        0.0277
      6 C         142.3506  141.8277  165.1107 C.ar    1  UNL1       -0.0073
      7 C         142.5207  143.1604  164.4434 C.ar    1  UNL1       -0.0015
      8 C         141.3954  144.1521  164.4511 C.ar    1  UNL1        0.0203
      9 C         140.0999  143.8113  165.1261 C.ar    1  UNL1        0.0985
     10 N         139.9298  142.4787  165.7934 N.ar    1  UNL1       -0.2471
     11 C         141.0551  141.4869  165.7857 C.ar    1  UNL1        0.0695
     12 C         139.4333  140.0295  168.6041 C.3     1  UNL1        0.0725
     13 C         140.5404  140.6673  169.3900 C.3     1  UNL1        0.0187
     14 C         141.5281  139.8107  170.1253 C.3     1  UNL1        0.0183
     15 N         143.8109  139.5916  171.3464 N.3     1  UNL1       -0.3211
     16 C         142.9113  140.3243  170.3956 C.3     1  UNL1        0.0652
     17 H         144.7058  140.0769  171.4101 H       1  UNL1        0.1189
     18 H         143.9626  138.6417  171.0073 H       1  UNL1        0.1189
     19 C         138.4501  139.2568  166.3268 C.3     1  UNL1        0.0886
     20 C         138.3213  139.5947  164.8710 C.3     1  UNL1        0.0749
     21 C         138.9350  138.6992  163.8360 C.3     1  UNL1        0.0447
     22 C         138.8061  139.0370  162.3802 C.ar    1  UNL1       -0.0058
     23 C         139.4199  138.1415  161.3452 C.ar    1  UNL1       -0.0014
     24 C         139.2910  138.4794  159.8895 C.ar    1  UNL1        0.0203
     25 C         138.5483  139.7129  159.4688 C.ar    1  UNL1        0.0985
     26 N         137.9346  140.6084  160.5038 N.ar    1  UNL1       -0.2471
     27 C         138.0635  140.2705  161.9595 C.ar    1  UNL1        0.0710
     28 C         137.4497  141.1661  162.9946 C.3     1  UNL1        0.1148
     29 N         137.5786  140.8282  164.4503 N.3     1  UNL1       -0.2921
     30 H         136.6309  140.7408  164.8173 H       1  UNL1        0.1236
@<TRIPOS>BOND
     1    15    16    1
     2    16    14    1
     3    14    13    1
     4    13    12    1
     5    12     1    1
     6     1    19    1
     7    20    19    1
     8    20    21    1
     9    21    22    1
    10    22    23   ar
    11    23    24   ar
    12    24    25   ar
    13    25    26   ar
    14    26    27   ar
    15    27    28    1
    16    28    29    1
    17     2     1    1
    18     2     3    1
    19     3     4    1
    20     4     5    1
    21     5     6    1
    22     6     7   ar
    23     7     8   ar
    24     8     9   ar
    25     9    10   ar
    26    10    11   ar
    27    29    20    1
    28    11     2    1
    29    27    22   ar
    30    11     6   ar
    31    15    17    1
    32    15    18    1
    33    29    30    1
@<TRIPOS>MOLECULE
*****
 30 33 0 0 0
SMALL
GASTEIGER

@<TRIPOS>ATOM
      1 N         141.8290  142.0305  167.2295 N.3     1  UNL1       -0.2679
      2 C         140.6336  141.4111  166.5682 C.3     1  UNL1        0.0978
      3 C         140.3287  139.9577  166.7794 C.3     1  UNL1        0.0224
      4 C         139.1333  139.3383  166.1181 C.3     1  UNL1        0.0065
      5 C         138.2428  140.1723  165.2455 C.3     1  UNL1        0.0277
      6 C         138.5477  141.6256  165.0343 C.ar    1  UNL1       -0.0073
      7 C         137.6572  142.4597  164.1617 C.ar    1  UNL1       -0.0015
      8 C         137.9621  143.9131  163.9504 C.ar    1  UNL1        0.0203
      9 C         139.1575  144.5325  164.6117 C.ar    1  UNL1        0.0985
     10 N         140.0480  143.6985  165.4843 N.ar    1  UNL1       -0.2471
     11 C         139.7431  142.2450  165.6956 C.ar    1  UNL1        0.0695
     12 C         141.7246  142.5501  168.6327 C.3     1  UNL1        0.0725
     13 C         140.3872  142.9357  169.1921 C.3     1  UNL1        0.0187
     14 C         139.7312  142.0732  170.2293 C.3     1  UNL1        0.0183
     15 N         141.2102  140.5992  171.7753 N.3     1  UNL1       -0.3211
     16 C         140.3200  140.7379  170.5759 C.3     1  UNL1        0.0652
     17 H         141.5184  139.6306  171.8598 H       1  UNL1        0.1189
     18 H         140.6948  140.8664  172.6140 H       1  UNL1        0.1189
     19 C         143.1289  142.1302  166.4876 C.3     1  UNL1        0.0886
     20 C         143.1827  141.8121  165.0227 C.3     1  UNL1        0.0749
     21 C         143.5321  140.4259  164.5685 C.3     1  UNL1        0.0447
     22 C         143.5859  140.1078  163.1036 C.ar    1  UNL1       -0.0058
     23 C         143.9354  138.7217  162.6494 C.ar    1  UNL1       -0.0014
     24 C         143.9892  138.4037  161.1845 C.ar    1  UNL1        0.0203
     25 C         143.6936  139.4718  160.1738 C.ar    1  UNL1        0.0985
     26 N         143.3441  140.8580  160.6280 N.ar    1  UNL1       -0.2471
     27 C         143.2903  141.1760  162.0928 C.ar    1  UNL1        0.0710
     28 C         142.9409  142.5623  162.5471 C.3     1  UNL1        0.1148
     29 N         142.8870  142.8803  164.0120 N.3     1  UNL1       -0.2921
     30 H         141.9437  143.2162  164.2059 H       1  UNL1        0.1236
@<TRIPOS>BOND
     1    15    16    1
     2    16    14    1
     3    14    13    1
     4    13    12    1
     5    12     1    1
     6     1    19    1
     7    20    19    1
     8    20    21    1
     9    21    22    1
    10    22    23   ar
    11    23    24   ar
    12    24    25   ar
    13    25    26   ar
    14    26    27   ar
    15    27    28    1
    16    28    29    1
    17     2     1    1
    18     2     3    1
    19     3     4    1
    20     4     5    1
    21     5     6    1
    22     6     7   ar
    23     7     8   ar
    24     8     9   ar
    25     9    10   ar
    26    10    11   ar
    27    29    20    1
    28    11     2    1
    29    27    22   ar
    30    11     6   ar
    31    15    17    1
    32    15    18    1
    33    29    30    1
@<TRIPOS>MOLECULE
*****
 30 33 0 0 0
SMALL
GASTEIGER

@<TRIPOS>ATOM
      1 N         142.8876  138.9020  163.9282 N.3     1  UNL1       -0.2679
      2 C         143.5945  140.2248  163.9106 C.3     1  UNL1        0.0978
      3 C         145.0926  140.2739  163.8542 C.3     1  UNL1        0.0224
      4 C         145.7995  141.5968  163.8366 C.3     1  UNL1        0.0065
      5 C         145.0084  142.8705  163.8753 C.3     1  UNL1        0.0277
      6 C         143.5103  142.8214  163.9317 C.ar    1  UNL1       -0.0073
      7 C         142.7190  144.0952  163.9705 C.ar    1  UNL1       -0.0015
      8 C         141.2209  144.0462  164.0269 C.ar    1  UNL1        0.0203
      9 C         140.5140  142.7233  164.0445 C.ar    1  UNL1        0.0985
     10 N         141.3051  141.4495  164.0057 N.ar    1  UNL1       -0.2471
     11 C         142.8033  141.4986  163.9493 C.ar    1  UNL1        0.0695
     12 C         142.4816  138.2513  162.6391 C.3     1  UNL1        0.0725
     13 C         141.0597  138.3397  162.1696 C.3     1  UNL1        0.0187
     14 C         139.9893  137.5540  162.8673 C.3     1  UNL1        0.0183
     15 N         138.6633  139.6321  163.6879 N.3     1  UNL1       -0.3211
     16 C         138.6854  138.2084  163.2160 C.3     1  UNL1        0.0652
     17 H         137.7012  139.9123  163.8784 H       1  UNL1        0.1189
     18 H         139.0566  140.2358  162.9659 H       1  UNL1        0.1189
     19 C         142.5866  138.2298  165.2349 C.3     1  UNL1        0.0886
     20 C         141.9036  138.9928  166.3310 C.3     1  UNL1        0.0749
     21 C         142.6591  139.3570  167.5746 C.3     1  UNL1        0.0447
     22 C         141.9761  140.1200  168.6707 C.ar    1  UNL1       -0.0058
     23 C         142.7316  140.4842  169.9143 C.ar    1  UNL1       -0.0014
     24 C         142.0486  141.2471  171.0104 C.ar    1  UNL1        0.0203
     25 C         140.6101  141.6458  170.8629 C.ar    1  UNL1        0.0985
     26 N         139.8546  141.2816  169.6193 N.ar    1  UNL1       -0.2471
     27 C         140.5376  140.5187  168.5232 C.ar    1  UNL1        0.0710
     28 C         139.7821  140.1545  167.2796 C.3     1  UNL1        0.1148
     29 N         140.4651  139.3915  166.1835 N.3     1  UNL1       -0.2921
     30 H         140.4034  139.9655  165.3426 H       1  UNL1        0.1236
@<TRIPOS>BOND
     1    15    16    1
     2    16    14    1
     3    14    13    1
     4    13    12    1
     5    12     1    1
     6     1    19    1
     7    20    19    1
     8    20    21    1
     9    21    22    1
    10    22    23   ar
    11    23    24   ar
    12    24    25   ar
    13    25    26   ar
    14    26    27   ar
    15    27    28    1
    16    28    29    1
    17     2     1    1
    18     2     3    1
    19     3     4    1
    20     4     5    1
    21     5     6    1
    22     6     7   ar
    23     7     8   ar
    24     8     9   ar
    25     9    10   ar
    26    10    11   ar
    27    29    20    1
    28    11     2    1
    29    27    22   ar
    30    11     6   ar
    31    15    17    1
    32    15    18    1
    33    29    30    1
@<TRIPOS>MOLECULE
*****
 30 33 0 0 0
SMALL
GASTEIGER

@<TRIPOS>ATOM
      1 N         139.3043  140.0089  166.9165 N.3     1  UNL1       -0.2679
      2 C         140.3110  140.9120  166.2679 C.3     1  UNL1        0.0978
      3 C         139.9876  142.3600  166.0475 C.3     1  UNL1        0.0224
      4 C         140.9944  143.2631  165.3989 C.3     1  UNL1        0.0065
      5 C         142.3246  142.7182  164.9705 C.3     1  UNL1        0.0277
      6 C         142.6480  141.2701  165.1908 C.ar    1  UNL1       -0.0073
      7 C         143.9783  140.7251  164.7624 C.ar    1  UNL1       -0.0015
      8 C         144.3017  139.2771  164.9827 C.ar    1  UNL1        0.0203
      9 C         143.2949  138.3740  165.6314 C.ar    1  UNL1        0.0985
     10 N         141.9647  138.9189  166.0598 N.ar    1  UNL1       -0.2471
     11 C         141.6413  140.3670  165.8395 C.ar    1  UNL1        0.0695
     12 C         139.2246  139.9263  168.4121 C.3     1  UNL1        0.0725
     13 C         140.3104  140.5264  169.2554 C.3     1  UNL1        0.0187
     14 C         141.4375  139.6684  169.7487 C.3     1  UNL1        0.0183
     15 N         143.6230  139.6052  171.1521 N.3     1  UNL1       -0.3211
     16 C         142.7341  140.2987  170.1627 C.3     1  UNL1        0.0652
     17 H         144.4554  140.1713  171.3166 H       1  UNL1        0.1189
     18 H         143.8983  138.6952  170.7825 H       1  UNL1        0.1189
     19 C         138.3772  139.1884  166.0697 C.3     1  UNL1        0.0886
     20 C         138.6873  138.9638  164.6193 C.3     1  UNL1        0.0749
     21 C         138.1080  139.8755  163.5786 C.3     1  UNL1        0.0447
     22 C         138.4181  139.6509  162.1282 C.ar    1  UNL1       -0.0058
     23 C         137.8388  140.5626  161.0875 C.ar    1  UNL1       -0.0014
     24 C         138.1490  140.3380  159.6372 C.ar    1  UNL1        0.0203
     25 C         139.0384  139.2017  159.2277 C.ar    1  UNL1        0.0985
     26 N         139.6177  138.2900  160.2684 N.ar    1  UNL1       -0.2471
     27 C         139.3076  138.5146  161.7187 C.ar    1  UNL1        0.0710
     28 C         139.8869  137.6029  162.7595 C.3     1  UNL1        0.1148
     29 N         139.5767  137.8275  164.2098 N.3     1  UNL1       -0.2921
     30 H         140.4692  137.9666  164.6836 H       1  UNL1        0.1236
@<TRIPOS>BOND
     1    15    16    1
     2    16    14    1
     3    14    13    1
     4    13    12    1
     5    12     1    1
     6     1    19    1
     7    20    19    1
     8    20    21    1
     9    21    22    1
    10    22    23   ar
    11    23    24   ar
    12    24    25   ar
    13    25    26   ar
    14    26    27   ar
    15    27    28    1
    16    28    29    1
    17     2     1    1
    18     2     3    1
    19     3     4    1
    20     4     5    1
    21     5     6    1
    22     6     7   ar
    23     7     8   ar
    24     8     9   ar
    25     9    10   ar
    26    10    11   ar
    27    29    20    1
    28    11     2    1
    29    27    22   ar
    30    11     6   ar
    31    15    17    1
    32    15    18    1
    33    29    30    1
@<TRIPOS>MOLECULE
*****
 30 33 0 0 0
SMALL
GASTEIGER

@<TRIPOS>ATOM
      1 N         141.9055  141.6423  167.3779 N.3     1  UNL1       -0.2679
      2 C         142.3258  142.3630  166.1313 C.3     1  UNL1        0.0978
      3 C         143.7301  142.2253  165.6226 C.3     1  UNL1        0.0224
      4 C         144.1503  142.9460  164.3760 C.3     1  UNL1        0.0065
      5 C         143.1662  143.8045  163.6382 C.3     1  UNL1        0.0277
      6 C         141.7619  143.9422  164.1469 C.ar    1  UNL1       -0.0073
      7 C         140.7777  144.8007  163.4090 C.ar    1  UNL1       -0.0015
      8 C         139.3733  144.9385  163.9177 C.ar    1  UNL1        0.0203
      9 C         138.9531  144.2178  165.1643 C.ar    1  UNL1        0.0985
     10 N         139.9372  143.3593  165.9022 N.ar    1  UNL1       -0.2471
     11 C         141.3416  143.2215  165.3935 C.ar    1  UNL1        0.0695
     12 C         141.9957  142.3296  168.7081 C.3     1  UNL1        0.0725
     13 C         140.7482  142.8011  169.3948 C.3     1  UNL1        0.0187
     14 C         140.2976  142.1442  170.6658 C.3     1  UNL1        0.0183
     15 N         142.0739  140.7401  171.9399 N.3     1  UNL1       -0.3211
     16 C         140.8602  140.8111  171.0612 C.3     1  UNL1        0.0652
     17 H         142.3162  139.7634  172.1066 H       1  UNL1        0.1189
     18 H         141.8768  141.1981  172.8297 H       1  UNL1        0.1189
     19 C         141.3952  140.2343  167.2943 C.3     1  UNL1        0.0886
     20 C         141.1314  139.6104  165.9559 C.3     1  UNL1        0.0749
     21 C         139.8292  139.8613  165.2551 C.3     1  UNL1        0.0447
     22 C         139.5654  139.2374  163.9167 C.ar    1  UNL1       -0.0058
     23 C         138.2632  139.4884  163.2158 C.ar    1  UNL1       -0.0014
     24 C         137.9994  138.8645  161.8775 C.ar    1  UNL1        0.0203
     25 C         139.0378  137.9896  161.2400 C.ar    1  UNL1        0.0985
     26 N         140.3400  137.7387  161.9409 N.ar    1  UNL1       -0.2471
     27 C         140.6038  138.3626  163.2792 C.ar    1  UNL1        0.0710
     28 C         141.9060  138.1116  163.9802 C.3     1  UNL1        0.1148
     29 N         142.1698  138.7356  165.3185 N.3     1  UNL1       -0.2921
     30 H         143.0115  139.3029  165.2181 H       1  UNL1        0.1236
@<TRIPOS>BOND
     1    15    16    1
     2    16    14    1
     3    14    13    1
     4    13    12    1
     5    12     1    1
     6     1    19    1
     7    20    19    1
     8    20    21    1
     9    21    22    1
    10    22    23   ar
    11    23    24   ar
    12    24    25   ar
    13    25    26   ar
    14    26    27   ar
    15    27    28    1
    16    28    29    1
    17     2     1    1
    18     2     3    1
    19     3     4    1
    20     4     5    1
    21     5     6    1
    22     6     7   ar
    23     7     8   ar
    24     8     9   ar
    25     9    10   ar
    26    10    11   ar
    27    29    20    1
    28    11     2    1
    29    27    22   ar
    30    11     6   ar
    31    15    17    1
    32    15    18    1
    33    29    30    1
@<TRIPOS>MOLECULE
*****
 30 33 0 0 0
SMALL
GASTEIGER

@<TRIPOS>ATOM
      1 N         142.4468  140.6787  167.4605 N.3     1  UNL1       -0.2679
      2 C         141.8657  141.7565  166.5941 C.3     1  UNL1        0.0978
      3 C         140.4719  142.2507  166.8453 C.3     1  UNL1        0.0224
      4 C         139.8908  143.3285  165.9789 C.3     1  UNL1        0.0065
      5 C         140.7034  143.9120  164.8613 C.3     1  UNL1        0.0277
      6 C         142.0971  143.4178  164.6100 C.ar    1  UNL1       -0.0073
      7 C         142.9098  144.0013  163.4923 C.ar    1  UNL1       -0.0015
      8 C         144.3035  143.5070  163.2411 C.ar    1  UNL1        0.0203
      9 C         144.8847  142.4292  164.1075 C.ar    1  UNL1        0.0985
     10 N         144.0721  141.8457  165.2251 N.ar    1  UNL1       -0.2471
     11 C         142.6783  142.3400  165.4764 C.ar    1  UNL1        0.0695
     12 C         142.9390  141.0081  168.8386 C.3     1  UNL1        0.0725
     13 C         142.5918  140.1147  169.9925 C.3     1  UNL1        0.0187
     14 C         141.1608  139.9532  170.4118 C.3     1  UNL1        0.0183
     15 N         140.6479  142.0960  171.7885 N.3     1  UNL1       -0.3211
     16 C         140.3115  141.1639  170.6624 C.3     1  UNL1        0.0652
     17 H         139.9709  142.8586  171.8125 H       1  UNL1        0.1189
     18 H         141.5837  142.4765  171.6470 H       1  UNL1        0.1189
     19 C         142.5357  139.2715  166.9488 C.3     1  UNL1        0.0886
     20 C         142.0701  138.9475  165.5601 C.3     1  UNL1        0.0749
     21 C         140.6025  138.8909  165.2553 C.3     1  UNL1        0.0447
     22 C         140.1369  138.5669  163.8666 C.ar    1  UNL1       -0.0058
     23 C         138.6693  138.5103  163.5617 C.ar    1  UNL1       -0.0014
     24 C         138.2038  138.1864  162.1731 C.ar    1  UNL1        0.0203
     25 C         139.2058  137.9190  161.0894 C.ar    1  UNL1        0.0985
     26 N         140.6734  137.9756  161.3942 N.ar    1  UNL1       -0.2471
     27 C         141.1389  138.2996  162.7828 C.ar    1  UNL1        0.0710
     28 C         142.6066  138.3562  163.0878 C.3     1  UNL1        0.1148
     29 N         143.0721  138.6802  164.4764 N.3     1  UNL1       -0.2921
     30 H         143.6569  139.5128  164.4041 H       1  UNL1        0.1236
@<TRIPOS>BOND
     1    15    16    1
     2    16    14    1
     3    14    13    1
     4    13    12    1
     5    12     1    1
     6     1    19    1
     7    20    19    1
     8    20    21    1
     9    21    22    1
    10    22    23   ar
    11    23    24   ar
    12    24    25   ar
    13    25    26   ar
    14    26    27   ar
    15    27    28    1
    16    28    29    1
    17     2     1    1
    18     2     3    1
    19     3     4    1
    20     4     5    1
    21     5     6    1
    22     6     7   ar
    23     7     8   ar
    24     8     9   ar
    25     9    10   ar
    26    10    11   ar
    27    29    20    1
    28    11     2    1
    29    27    22   ar
    30    11     6   ar
    31    15    17    1
    32    15    18    1
    33    29    30    1
