@<TRIPOS>MOLECULE
*****
 33 37 0 0 0
SMALL
GASTEIGER

@<TRIPOS>ATOM
      1 N         139.8950  137.7956  164.1697 N.3     1  UNL1       -0.2704
      2 C         139.4722  137.8056  162.7306 C.3     1  UNL1        0.0722
      3 C         140.4920  138.0150  161.6508 C.3     1  UNL1        0.0191
      4 C         141.9347  138.2143  162.0100 C.3     1  UNL1        0.0226
      5 C         142.3575  138.2043  163.4492 C.3     1  UNL1        0.0191
      6 C         141.3376  137.9950  164.5290 C.3     1  UNL1        0.0722
      7 C         143.4054  138.4258  162.2153 C.3     1  UNL1        0.0232
      8 C         144.0426  138.5911  160.8674 C.3     1  UNL1        0.0923
      9 N         142.9655  138.4818  159.8290 N.pl3   1  UNL1       -0.2919
     10 C         141.6628  138.2489  160.5352 C.3     1  UNL1        0.0922
     11 C         143.1575  138.5869  158.3452 C.ar    1  UNL1        0.1517
     12 C         142.5107  137.5875  157.4326 C.ar    1  UNL1        0.0410
     13 C         142.7027  137.6926  155.9486 C.ar    1  UNL1        0.0651
     14 C         143.5415  138.7971  155.3773 C.ar    1  UNL1        0.2766
     15 O         143.7335  138.9023  153.8933 O.2     1  UNL1       -0.2655
     16 N         144.1884  139.7966  156.2899 N.ar    1  UNL1       -0.2134
     17 C         145.0272  140.9011  155.7185 C.3     1  UNL1        0.1571
     18 N         143.9963  139.6914  157.7738 N.ar    1  UNL1       -0.1517
     19 C         138.8752  137.5863  165.2496 C.3     1  UNL1        0.1063
     20 C         138.1572  138.7628  165.8414 C.3     1  UNL1        0.1483
     21 O         137.2992  138.5832  167.0587 O.3     1  UNL1       -0.3786
     22 H         136.9108  139.4360  167.3092 H       1  UNL1        0.2108
     23 C         140.0653  140.7628  167.0073 C.3     1  UNL1        0.0306
     24 C         139.2511  141.1190  165.7989 C.ar    1  UNL1       -0.0238
     25 C         138.2971  140.1190  165.2159 C.ar    1  UNL1        0.0015
     26 C         137.4829  140.4752  164.0075 C.ar    1  UNL1       -0.0020
     27 C         137.6227  141.8314  163.3821 C.ar    1  UNL1        0.0060
     28 C         138.5768  142.8313  163.9650 C.ar    1  UNL1        0.0748
     29 C         139.3910  142.4751  165.1734 C.ar    1  UNL1        0.0233
     30 C         140.2432  143.6588  165.5234 C.3     1  UNL1        0.2352
     31 O         139.9558  144.7466  164.5314 O.3     1  UNL1       -0.4404
     32 C         138.9259  144.2351  163.5683 C.2     1  UNL1        0.3413
     33 O         138.3467  144.9943  162.4114 O.2     1  UNL1       -0.2449
@<TRIPOS>BOND
     1    23    24    1
     2    24    25   ar
     3    25    20    1
     4    20    21    1
     5    20    19    1
     6    19     1    1
     7     1     2    1
     8     2     3    1
     9     3     4    1
    10     4     5    1
    11     5     6    1
    12     4     7    1
    13     7     8    1
    14     8     9    1
    15     9    11    1
    16    11    12   ar
    17    12    13   ar
    18    13    14   ar
    19    14    15    2
    20    14    16   ar
    21    16    17    1
    22    16    18   ar
    23     9    10    1
    24    25    26   ar
    25    26    27   ar
    26    27    28   ar
    27    28    29   ar
    28    29    30    1
    29    30    31    1
    30    31    32    1
    31    32    33    2
    32    29    24   ar
    33     6     1    1
    34    18    11   ar
    35    32    28    1
    36    10     4    1
    37    21    22    1
@<TRIPOS>MOLECULE
*****
 33 37 0 0 0
SMALL
GASTEIGER

@<TRIPOS>ATOM
      1 N         139.8689  138.2953  161.9048 N.3     1  UNL1       -0.2704
      2 C         139.0921  139.0658  162.9310 C.3     1  UNL1        0.0722
      3 C         139.7016  139.3565  164.2703 C.3     1  UNL1        0.0191
      4 C         141.0879  138.8768  164.5836 C.3     1  UNL1        0.0226
      5 C         141.8646  138.1064  163.5574 C.3     1  UNL1        0.0191
      6 C         141.2551  137.8156  162.2181 C.3     1  UNL1        0.0722
      7 C         142.4565  138.4638  165.0378 C.3     1  UNL1        0.0232
      8 C         142.6502  138.9634  166.4390 C.3     1  UNL1        0.0923
      9 N         141.4013  139.6852  166.8506 N.pl3   1  UNL1       -0.2919
     10 C         140.4358  139.6317  165.7039 C.3     1  UNL1        0.0922
     11 C         141.1604  140.3446  168.1760 C.ar    1  UNL1        0.1517
     12 C         139.9381  139.9996  168.9742 C.ar    1  UNL1        0.0410
     13 C         139.6972  140.6591  170.2997 C.ar    1  UNL1        0.0651
     14 C         140.6784  141.6636  170.8271 C.ar    1  UNL1        0.2766
     15 O         140.4375  142.3231  172.1526 O.2     1  UNL1       -0.2655
     16 N         141.9008  142.0086  170.0289 N.ar    1  UNL1       -0.2134
     17 C         142.8821  143.0130  170.5563 C.3     1  UNL1        0.1571
     18 N         142.1417  141.3490  168.7034 N.ar    1  UNL1       -0.1517
     19 C         139.2594  138.0046  160.5654 C.3     1  UNL1        0.1063
     20 C         139.3755  139.0064  159.4551 C.3     1  UNL1        0.1483
     21 O         139.2859  138.5570  158.0269 O.3     1  UNL1       -0.3786
     22 H         139.3799  139.3236  157.4401 H       1  UNL1        0.2108
     23 C         142.1418  140.1672  159.4438 C.3     1  UNL1        0.0306
     24 C         140.9643  141.0382  159.7674 C.ar    1  UNL1       -0.0238
     25 C         139.5812  140.4579  159.7731 C.ar    1  UNL1        0.0015
     26 C         138.4037  141.3290  160.0968 C.ar    1  UNL1       -0.0020
     27 C         138.6093  142.7803  160.4147 C.ar    1  UNL1        0.0060
     28 C         139.9925  143.3607  160.4091 C.ar    1  UNL1        0.0748
     29 C         141.1700  142.4896  160.0854 C.ar    1  UNL1        0.0233
     30 C         142.4063  143.3361  160.1569 C.3     1  UNL1        0.2352
     31 O         141.9928  144.7303  160.5247 O.3     1  UNL1       -0.4404
     32 C         140.5010  144.7455  160.6806 C.2     1  UNL1        0.3413
     33 O         139.6646  145.9364  161.0441 O.2     1  UNL1       -0.2449
@<TRIPOS>BOND
     1    23    24    1
     2    24    25   ar
     3    25    20    1
     4    20    21    1
     5    20    19    1
     6    19     1    1
     7     1     2    1
     8     2     3    1
     9     3     4    1
    10     4     5    1
    11     5     6    1
    12     4     7    1
    13     7     8    1
    14     8     9    1
    15     9    11    1
    16    11    12   ar
    17    12    13   ar
    18    13    14   ar
    19    14    15    2
    20    14    16   ar
    21    16    17    1
    22    16    18   ar
    23     9    10    1
    24    25    26   ar
    25    26    27   ar
    26    27    28   ar
    27    28    29   ar
    28    29    30    1
    29    30    31    1
    30    31    32    1
    31    32    33    2
    32    29    24   ar
    33     6     1    1
    34    18    11   ar
    35    32    28    1
    36    10     4    1
    37    21    22    1
@<TRIPOS>MOLECULE
*****
 33 37 0 0 0
SMALL
GASTEIGER

@<TRIPOS>ATOM
      1 N         138.6817  139.1991  164.9005 N.3     1  UNL1       -0.2704
      2 C         138.0276  140.3488  164.1932 C.3     1  UNL1        0.0722
      3 C         138.0375  140.4108  162.6945 C.3     1  UNL1        0.0191
      4 C         138.7014  139.3231  161.9032 C.3     1  UNL1        0.0226
      5 C         139.3555  138.1734  162.6106 C.3     1  UNL1        0.0191
      6 C         139.3456  138.1114  164.1092 C.3     1  UNL1        0.0722
      7 C         139.3229  138.3145  160.9831 C.3     1  UNL1        0.0232
      8 C         139.0971  138.7727  159.5727 C.3     1  UNL1        0.0923
      9 N         138.3361  140.0645  159.6212 N.pl3   1  UNL1       -0.2919
     10 C         138.0916  140.4047  161.0615 C.3     1  UNL1        0.0922
     11 C         137.8969  140.8740  158.4373 C.ar    1  UNL1        0.1517
     12 C         138.5967  142.1586  158.1057 C.ar    1  UNL1        0.0410
     13 C         138.1574  142.9680  156.9217 C.ar    1  UNL1        0.0651
     14 C         137.0182  142.4929  156.0693 C.ar    1  UNL1        0.2766
     15 O         136.5789  143.3024  154.8853 O.2     1  UNL1       -0.2655
     16 N         136.3183  141.2082  156.4009 N.ar    1  UNL1       -0.2134
     17 C         135.1792  140.7331  155.5485 C.3     1  UNL1        0.1571
     18 N         136.7577  140.3988  157.5849 N.ar    1  UNL1       -0.1517
     19 C         138.6718  139.1370  166.3993 C.3     1  UNL1        0.1063
     20 C         139.7550  139.8146  167.1851 C.3     1  UNL1        0.1483
     21 O         139.5797  140.0489  168.6563 O.3     1  UNL1       -0.3786
     22 H         140.3662  140.4940  169.0088 H       1  UNL1        0.2108
     23 C         140.0242  142.6448  166.2271 C.3     1  UNL1        0.0306
     24 C         141.1481  141.6730  166.0208 C.ar    1  UNL1       -0.0238
     25 C         141.0135  140.2580  166.4998 C.ar    1  UNL1        0.0015
     26 C         142.1374  139.2862  166.2934 C.ar    1  UNL1       -0.0020
     27 C         143.3959  139.7295  165.6081 C.ar    1  UNL1        0.0060
     28 C         143.5305  141.1446  165.1292 C.ar    1  UNL1        0.0748
     29 C         142.4066  142.1163  165.3355 C.ar    1  UNL1        0.0233
     30 C         142.8243  143.4370  164.7599 C.3     1  UNL1        0.2352
     31 O         144.2063  143.2815  164.1979 O.3     1  UNL1       -0.4404
     32 C         144.6427  141.8647  164.4261 C.2     1  UNL1        0.3413
     33 O         145.9601  141.2720  164.0222 O.2     1  UNL1       -0.2449
@<TRIPOS>BOND
     1    23    24    1
     2    24    25   ar
     3    25    20    1
     4    20    21    1
     5    20    19    1
     6    19     1    1
     7     1     2    1
     8     2     3    1
     9     3     4    1
    10     4     5    1
    11     5     6    1
    12     4     7    1
    13     7     8    1
    14     8     9    1
    15     9    11    1
    16    11    12   ar
    17    12    13   ar
    18    13    14   ar
    19    14    15    2
    20    14    16   ar
    21    16    17    1
    22    16    18   ar
    23     9    10    1
    24    25    26   ar
    25    26    27   ar
    26    27    28   ar
    27    28    29   ar
    28    29    30    1
    29    30    31    1
    30    31    32    1
    31    32    33    2
    32    29    24   ar
    33     6     1    1
    34    18    11   ar
    35    32    28    1
    36    10     4    1
    37    21    22    1
@<TRIPOS>MOLECULE
*****
 33 37 0 0 0
SMALL
GASTEIGER

@<TRIPOS>ATOM
      1 N         138.5929  141.2422  164.0519 N.3     1  UNL1       -0.2704
      2 C         138.9263  140.9892  162.6115 C.3     1  UNL1        0.0722
      3 C         139.2950  142.1338  161.7149 C.3     1  UNL1        0.0191
      4 C         139.3302  143.5314  162.2587 C.3     1  UNL1        0.0226
      5 C         138.9967  143.7843  163.6991 C.3     1  UNL1        0.0191
      6 C         138.6281  142.6397  164.5957 C.3     1  UNL1        0.0722
      7 C         139.4076  144.9750  162.6584 C.3     1  UNL1        0.0232
      8 C         139.8114  145.7692  161.4516 C.3     1  UNL1        0.0923
      9 N         139.9836  144.8163  160.3060 N.pl3   1  UNL1       -0.2919
     10 C         139.6862  143.4333  160.8048 C.3     1  UNL1        0.0922
     11 C         140.3830  145.1822  158.9073 C.ar    1  UNL1        0.1517
     12 C         141.6115  144.5768  158.2955 C.ar    1  UNL1        0.0410
     13 C         142.0109  144.9427  156.8967 C.ar    1  UNL1        0.0651
     14 C         141.1819  145.9140  156.1097 C.ar    1  UNL1        0.2766
     15 O         141.5813  146.2799  154.7109 O.2     1  UNL1       -0.2655
     16 N         139.9533  146.5194  156.7215 N.ar    1  UNL1       -0.2134
     17 C         139.1243  147.4906  155.9346 C.3     1  UNL1        0.1571
     18 N         139.5540  146.1534  158.1203 N.ar    1  UNL1       -0.1517
     19 C         138.2242  140.0976  164.9486 C.3     1  UNL1        0.1063
     20 C         139.2688  139.4547  165.8121 C.3     1  UNL1        0.1483
     21 O         139.9237  138.1788  165.3728 O.3     1  UNL1       -0.3786
     22 H         140.5697  137.9004  166.0407 H       1  UNL1        0.2108
     23 C         141.7110  141.1902  165.9656 C.3     1  UNL1        0.0306
     24 C         140.8794  140.9555  167.1918 C.ar    1  UNL1       -0.0238
     25 C         139.6583  140.0878  167.1150 C.ar    1  UNL1        0.0015
     26 C         138.8267  139.8532  168.3412 C.ar    1  UNL1       -0.0020
     27 C         139.2163  140.4863  169.6440 C.ar    1  UNL1        0.0060
     28 C         140.4374  141.3539  169.7207 C.ar    1  UNL1        0.0748
     29 C         141.2690  141.5886  168.4946 C.ar    1  UNL1        0.0233
     30 C         142.4104  142.4852  168.8733 C.3     1  UNL1        0.2352
     31 O         142.2842  142.8047  170.3334 O.3     1  UNL1       -0.4404
     32 C         141.0648  142.1055  170.8572 C.2     1  UNL1        0.3413
     33 O         140.5613  142.1501  172.2694 O.2     1  UNL1       -0.2449
@<TRIPOS>BOND
     1    23    24    1
     2    24    25   ar
     3    25    20    1
     4    20    21    1
     5    20    19    1
     6    19     1    1
     7     1     2    1
     8     2     3    1
     9     3     4    1
    10     4     5    1
    11     5     6    1
    12     4     7    1
    13     7     8    1
    14     8     9    1
    15     9    11    1
    16    11    12   ar
    17    12    13   ar
    18    13    14   ar
    19    14    15    2
    20    14    16   ar
    21    16    17    1
    22    16    18   ar
    23     9    10    1
    24    25    26   ar
    25    26    27   ar
    26    27    28   ar
    27    28    29   ar
    28    29    30    1
    29    30    31    1
    30    31    32    1
    31    32    33    2
    32    29    24   ar
    33     6     1    1
    34    18    11   ar
    35    32    28    1
    36    10     4    1
    37    21    22    1
@<TRIPOS>MOLECULE
*****
 33 37 0 0 0
SMALL
GASTEIGER

@<TRIPOS>ATOM
      1 N         140.0664  138.0877  164.3741 N.3     1  UNL1       -0.2704
      2 C         139.4828  138.0743  162.9924 C.3     1  UNL1        0.0722
      3 C         140.3875  138.0770  161.7960 C.3     1  UNL1        0.0191
      4 C         141.8760  138.0931  161.9814 C.3     1  UNL1        0.0226
      5 C         142.4596  138.1065  163.3630 C.3     1  UNL1        0.0191
      6 C         141.5548  138.1038  164.5594 C.3     1  UNL1        0.0722
      7 C         143.3756  138.1085  162.0101 C.3     1  UNL1        0.0232
      8 C         143.8665  138.1058  160.5926 C.3     1  UNL1        0.0923
      9 N         142.6701  138.0887  159.6878 N.pl3   1  UNL1       -0.2919
     10 C         141.4400  138.0809  160.5461 C.3     1  UNL1        0.0922
     11 C         142.6989  138.0808  158.1882 C.ar    1  UNL1        0.1517
     12 C         142.2624  139.2951  157.4233 C.ar    1  UNL1        0.0410
     13 C         142.2912  139.2872  155.9236 C.ar    1  UNL1        0.0651
     14 C         142.7565  138.0651  155.1888 C.ar    1  UNL1        0.2766
     15 O         142.7853  138.0573  153.6890 O.2     1  UNL1       -0.2655
     16 N         143.1930  136.8508  155.9537 N.ar    1  UNL1       -0.2134
     17 C         143.6583  135.6287  155.2188 C.3     1  UNL1        0.1571
     18 N         143.1642  136.8587  157.4534 N.ar    1  UNL1       -0.1517
     19 C         139.1616  138.0850  165.5705 C.3     1  UNL1        0.1063
     20 C         138.5399  139.3655  166.0436 C.3     1  UNL1        0.1483
     21 O         137.4034  139.9753  165.2777 O.3     1  UNL1       -0.3786
     22 H         137.1209  140.7936  165.7152 H       1  UNL1        0.2108
     23 C         140.6990  141.4385  165.8403 C.3     1  UNL1        0.0306
     24 C         140.1342  141.0728  167.1809 C.ar    1  UNL1       -0.0238
     25 C         139.0547  140.0363  167.2826 C.ar    1  UNL1        0.0015
     26 C         138.4900  139.6706  168.6232 C.ar    1  UNL1       -0.0020
     27 C         139.0047  140.3414  169.8622 C.ar    1  UNL1        0.0060
     28 C         140.0842  141.3778  169.7605 C.ar    1  UNL1        0.0748
     29 C         140.6490  141.7436  168.4199 C.ar    1  UNL1        0.0233
     30 C         141.6989  142.7940  168.6301 C.3     1  UNL1        0.2352
     31 O         141.7830  143.0775  170.1007 O.3     1  UNL1       -0.4404
     32 C         140.7851  142.2023  170.7993 C.2     1  UNL1        0.3413
     33 O         140.5324  142.1590  172.2772 O.2     1  UNL1       -0.2449
@<TRIPOS>BOND
     1    23    24    1
     2    24    25   ar
     3    25    20    1
     4    20    21    1
     5    20    19    1
     6    19     1    1
     7     1     2    1
     8     2     3    1
     9     3     4    1
    10     4     5    1
    11     5     6    1
    12     4     7    1
    13     7     8    1
    14     8     9    1
    15     9    11    1
    16    11    12   ar
    17    12    13   ar
    18    13    14   ar
    19    14    15    2
    20    14    16   ar
    21    16    17    1
    22    16    18   ar
    23     9    10    1
    24    25    26   ar
    25    26    27   ar
    26    27    28   ar
    27    28    29   ar
    28    29    30    1
    29    30    31    1
    30    31    32    1
    31    32    33    2
    32    29    24   ar
    33     6     1    1
    34    18    11   ar
    35    32    28    1
    36    10     4    1
    37    21    22    1
@<TRIPOS>MOLECULE
*****
 33 37 0 0 0
SMALL
GASTEIGER

@<TRIPOS>ATOM
      1 N         142.3138  138.0606  161.9101 N.3     1  UNL1       -0.2704
      2 C         142.9771  138.8242  163.0177 C.3     1  UNL1        0.0722
      3 C         142.2138  139.1473  164.2678 C.3     1  UNL1        0.0191
      4 C         140.7870  138.7068  164.4104 C.3     1  UNL1        0.0226
      5 C         140.1236  137.9432  163.3028 C.3     1  UNL1        0.0191
      6 C         140.8870  137.6201  162.0527 C.3     1  UNL1        0.0722
      7 C         139.3620  138.3342  164.6944 C.3     1  UNL1        0.0232
      8 C         139.0088  138.8564  166.0556 C.3     1  UNL1        0.0923
      9 N         140.2156  139.5516  166.6128 N.pl3   1  UNL1       -0.2919
     10 C         141.3145  139.4592  165.5960 C.3     1  UNL1        0.0922
     11 C         140.3073  140.2216  167.9516 C.ar    1  UNL1        0.1517
     12 C         139.1702  140.1136  168.9238 C.ar    1  UNL1        0.0410
     13 C         139.2619  140.7836  170.2627 C.ar    1  UNL1        0.0651
     14 C         140.4908  141.5617  170.6295 C.ar    1  UNL1        0.2766
     15 O         140.5825  142.2317  171.9684 O.2     1  UNL1       -0.2655
     16 N         141.6280  141.6697  169.6572 N.ar    1  UNL1       -0.2134
     17 C         142.8569  142.4477  170.0240 C.3     1  UNL1        0.1571
     18 N         141.5362  140.9996  168.3184 N.ar    1  UNL1       -0.1517
     19 C         143.0772  137.7375  160.6599 C.3     1  UNL1        0.1063
     20 C         142.8994  138.5821  159.4332 C.3     1  UNL1        0.1483
     21 O         143.2359  138.0232  158.0825 O.3     1  UNL1       -0.3786
     22 H         143.0648  138.6941  157.4032 H       1  UNL1        0.2108
     23 C         140.0069  139.1725  158.8991 C.3     1  UNL1        0.0306
     24 C         140.9389  140.2810  159.2900 C.ar    1  UNL1       -0.0238
     25 C         142.3850  139.9858  159.5571 C.ar    1  UNL1        0.0015
     26 C         143.3170  141.0942  159.9481 C.ar    1  UNL1       -0.0020
     27 C         142.8027  142.4979  160.0719 C.ar    1  UNL1        0.0060
     28 C         141.3566  142.7930  159.8049 C.ar    1  UNL1        0.0748
     29 C         140.4246  141.6846  159.4139 C.ar    1  UNL1        0.0233
     30 C         139.0601  142.2749  159.2145 C.3     1  UNL1        0.2352
     31 O         139.1488  143.7481  159.4822 O.3     1  UNL1       -0.4404
     32 C         140.5680  144.0683  159.8471 C.2     1  UNL1        0.3413
     33 O         141.1046  145.4256  160.1934 O.2     1  UNL1       -0.2449
@<TRIPOS>BOND
     1    23    24    1
     2    24    25   ar
     3    25    20    1
     4    20    21    1
     5    20    19    1
     6    19     1    1
     7     1     2    1
     8     2     3    1
     9     3     4    1
    10     4     5    1
    11     5     6    1
    12     4     7    1
    13     7     8    1
    14     8     9    1
    15     9    11    1
    16    11    12   ar
    17    12    13   ar
    18    13    14   ar
    19    14    15    2
    20    14    16   ar
    21    16    17    1
    22    16    18   ar
    23     9    10    1
    24    25    26   ar
    25    26    27   ar
    26    27    28   ar
    27    28    29   ar
    28    29    30    1
    29    30    31    1
    30    31    32    1
    31    32    33    2
    32    29    24   ar
    33     6     1    1
    34    18    11   ar
    35    32    28    1
    36    10     4    1
    37    21    22    1
@<TRIPOS>MOLECULE
*****
 33 37 0 0 0
SMALL
GASTEIGER

@<TRIPOS>ATOM
      1 N         142.2949  139.0821  165.1266 N.3     1  UNL1       -0.2704
      2 C         141.5136  138.1444  164.2547 C.3     1  UNL1        0.0722
      3 C         141.8405  138.0295  162.7953 C.3     1  UNL1        0.0191
      4 C         142.9487  138.8521  162.2078 C.3     1  UNL1        0.0226
      5 C         143.7300  139.7898  163.0798 C.3     1  UNL1        0.0191
      6 C         143.4031  139.9047  164.5392 C.3     1  UNL1        0.0722
      7 C         144.0234  139.6068  161.4829 C.3     1  UNL1        0.0232
      8 C         143.9972  139.1834  160.0441 C.3     1  UNL1        0.0923
      9 N         142.9062  138.1670  159.8798 N.pl3   1  UNL1       -0.2919
     10 C         142.2582  137.9623  161.2170 C.3     1  UNL1        0.0922
     11 C         142.5295  137.4766  158.6026 C.ar    1  UNL1        0.1517
     12 C         141.3806  137.9874  157.7846 C.ar    1  UNL1        0.0410
     13 C         141.0038  137.2970  156.5074 C.ar    1  UNL1        0.0651
     14 C         141.7760  136.0958  156.0481 C.ar    1  UNL1        0.2766
     15 O         141.3992  135.4054  154.7708 O.2     1  UNL1       -0.2655
     16 N         142.9249  135.5850  156.8661 N.ar    1  UNL1       -0.2134
     17 C         143.6971  134.3838  156.4068 C.3     1  UNL1        0.1571
     18 N         143.3016  136.2754  158.1433 N.ar    1  UNL1       -0.1517
     19 C         141.9680  139.1970  166.5861 C.3     1  UNL1        0.1063
     20 C         140.8839  140.1287  167.0407 C.3     1  UNL1        0.1483
     21 O         140.4108  140.0914  168.4637 O.3     1  UNL1       -0.3786
     22 H         139.7121  140.7524  168.5896 H       1  UNL1        0.2108
     23 C         138.4312  139.3590  165.4942 C.3     1  UNL1        0.0306
     24 C         139.0466  140.7129  165.2992 C.ar    1  UNL1       -0.0238
     25 C         140.2729  141.0978  166.0724 C.ar    1  UNL1        0.0015
     26 C         140.8883  142.4518  165.8774 C.ar    1  UNL1       -0.0020
     27 C         140.2773  143.4209  164.9091 C.ar    1  UNL1        0.0060
     28 C         139.0510  143.0360  164.1359 C.ar    1  UNL1        0.0748
     29 C         138.4356  141.6820  164.3309 C.ar    1  UNL1        0.0233
     30 C         137.2366  141.5844  163.4349 C.3     1  UNL1        0.2352
     31 O         137.1109  142.8781  162.6861 O.3     1  UNL1       -0.4404
     32 C         138.2323  143.7752  163.1193 C.2     1  UNL1        0.3413
     33 O         138.4898  145.1671  162.6232 O.2     1  UNL1       -0.2449
@<TRIPOS>BOND
     1    23    24    1
     2    24    25   ar
     3    25    20    1
     4    20    21    1
     5    20    19    1
     6    19     1    1
     7     1     2    1
     8     2     3    1
     9     3     4    1
    10     4     5    1
    11     5     6    1
    12     4     7    1
    13     7     8    1
    14     8     9    1
    15     9    11    1
    16    11    12   ar
    17    12    13   ar
    18    13    14   ar
    19    14    15    2
    20    14    16   ar
    21    16    17    1
    22    16    18   ar
    23     9    10    1
    24    25    26   ar
    25    26    27   ar
    26    27    28   ar
    27    28    29   ar
    28    29    30    1
    29    30    31    1
    30    31    32    1
    31    32    33    2
    32    29    24   ar
    33     6     1    1
    34    18    11   ar
    35    32    28    1
    36    10     4    1
    37    21    22    1
@<TRIPOS>MOLECULE
*****
 33 37 0 0 0
SMALL
GASTEIGER

@<TRIPOS>ATOM
      1 N         144.8597  141.7029  163.0221 N.3     1  UNL1       -0.2704
      2 C         144.5919  142.0084  161.5782 C.3     1  UNL1        0.0722
      3 C         144.0718  140.9351  160.6685 C.3     1  UNL1        0.0191
      4 C         143.8196  139.5563  161.2028 C.3     1  UNL1        0.0226
      5 C         144.0874  139.2509  162.6467 C.3     1  UNL1        0.0191
      6 C         144.6075  140.3242  163.5564 C.3     1  UNL1        0.0722
      7 C         143.5212  138.1388  161.5921 C.3     1  UNL1        0.0232
      8 C         143.0238  137.4184  160.3739 C.3     1  UNL1        0.0923
      9 N         143.0148  138.3908  159.2318 N.pl3   1  UNL1       -0.2919
     10 C         143.5066  139.7121  159.7440 C.3     1  UNL1        0.0922
     11 C         142.5888  138.0941  157.8246 C.ar    1  UNL1        0.1517
     12 C         141.5953  138.9840  157.1383 C.ar    1  UNL1        0.0410
     13 C         141.1693  138.6872  155.7310 C.ar    1  UNL1        0.0651
     14 C         141.7367  137.5005  155.0100 C.ar    1  UNL1        0.2766
     15 O         141.3107  137.2037  153.6027 O.2     1  UNL1       -0.2655
     16 N         142.7302  136.6105  155.6964 N.ar    1  UNL1       -0.2134
     17 C         143.2977  135.4238  154.9754 C.3     1  UNL1        0.1571
     18 N         143.1562  136.9074  157.1037 N.ar    1  UNL1       -0.1517
     19 C         145.3798  142.7763  163.9318 C.3     1  UNL1        0.1063
     20 C         144.4394  143.5076  164.8433 C.3     1  UNL1        0.1483
     21 O         144.9329  144.0493  166.1521 O.3     1  UNL1       -0.3786
     22 H         144.2035  144.4902  166.6152 H       1  UNL1        0.2108
     23 C         142.2964  141.8390  166.1175 C.3     1  UNL1        0.0306
     24 C         141.9340  142.8629  165.0830 C.ar    1  UNL1       -0.0238
     25 C         143.0054  143.6972  164.4459 C.ar    1  UNL1        0.0015
     26 C         142.6430  144.7212  163.4115 C.ar    1  UNL1       -0.0020
     27 C         141.2091  144.9109  163.0141 C.ar    1  UNL1        0.0060
     28 C         140.1377  144.0766  163.6512 C.ar    1  UNL1        0.0748
     29 C         140.5001  143.0526  164.6856 C.ar    1  UNL1        0.0233
     30 C         139.2364  142.3822  165.1369 C.3     1  UNL1        0.2352
     31 O         138.0929  142.9919  164.3814 O.3     1  UNL1       -0.4404
     32 C         138.6500  144.0391  163.4632 C.2     1  UNL1        0.3413
     33 O         137.8583  144.8979  162.5221 O.2     1  UNL1       -0.2449
@<TRIPOS>BOND
     1    23    24    1
     2    24    25   ar
     3    25    20    1
     4    20    21    1
     5    20    19    1
     6    19     1    1
     7     1     2    1
     8     2     3    1
     9     3     4    1
    10     4     5    1
    11     5     6    1
    12     4     7    1
    13     7     8    1
    14     8     9    1
    15     9    11    1
    16    11    12   ar
    17    12    13   ar
    18    13    14   ar
    19    14    15    2
    20    14    16   ar
    21    16    17    1
    22    16    18   ar
    23     9    10    1
    24    25    26   ar
    25    26    27   ar
    26    27    28   ar
    27    28    29   ar
    28    29    30    1
    29    30    31    1
    30    31    32    1
    31    32    33    2
    32    29    24   ar
    33     6     1    1
    34    18    11   ar
    35    32    28    1
    36    10     4    1
    37    21    22    1
@<TRIPOS>MOLECULE
*****
 33 37 0 0 0
SMALL
GASTEIGER

@<TRIPOS>ATOM
      1 N         144.4828  141.8157  161.8858 N.3     1  UNL1       -0.2704
      2 C         143.9515  142.7451  162.9364 C.3     1  UNL1        0.0722
      3 C         143.5431  142.2076  164.2760 C.3     1  UNL1        0.0191
      4 C         143.6661  140.7408  164.5648 C.3     1  UNL1        0.0226
      5 C         144.1974  139.8115  163.5141 C.3     1  UNL1        0.0191
      6 C         144.6057  140.3489  162.1746 C.3     1  UNL1        0.0722
      7 C         143.7316  139.3057  164.9963 C.3     1  UNL1        0.0232
      8 C         143.2265  139.2221  166.4063 C.3     1  UNL1        0.0923
      9 N         142.8487  140.6056  166.8462 N.pl3   1  UNL1       -0.2919
     10 C         143.1204  141.5442  165.7081 C.3     1  UNL1        0.0922
     11 C         142.2964  140.9839  168.1884 C.ar    1  UNL1        0.1517
     12 C         142.3989  140.0266  169.3386 C.ar    1  UNL1        0.0410
     13 C         141.8465  140.4050  170.6809 C.ar    1  UNL1        0.0651
     14 C         141.1915  141.7407  170.8729 C.ar    1  UNL1        0.2766
     15 O         140.6391  142.1191  172.2152 O.2     1  UNL1       -0.2655
     16 N         141.0889  142.6981  169.7227 N.ar    1  UNL1       -0.2134
     17 C         140.4339  144.0338  169.9147 C.3     1  UNL1        0.1571
     18 N         141.6414  142.3196  168.3804 N.ar    1  UNL1       -0.1517
     19 C         144.8912  142.3531  160.5462 C.3     1  UNL1        0.1063
     20 C         143.8584  142.5786  159.4820 C.3     1  UNL1        0.1483
     21 O         144.2332  143.2789  158.2095 O.3     1  UNL1       -0.3786
     22 H         143.4550  143.3421  157.6339 H       1  UNL1        0.2108
     23 C         141.8160  144.4205  160.6803 C.3     1  UNL1        0.0306
     24 C         141.4296  143.0248  160.2894 C.ar    1  UNL1       -0.0238
     25 C         142.4508  142.1039  159.6902 C.ar    1  UNL1        0.0015
     26 C         142.0644  140.7082  159.2993 C.ar    1  UNL1       -0.0020
     27 C         140.6569  140.2335  159.5075 C.ar    1  UNL1        0.0060
     28 C         139.6357  141.1544  160.1067 C.ar    1  UNL1        0.0748
     29 C         140.0221  142.5501  160.4976 C.ar    1  UNL1        0.0233
     30 C         138.8078  143.2264  161.0618 C.3     1  UNL1        0.2352
     31 O         137.6710  142.2487  161.0195 O.3     1  UNL1       -0.4404
     32 C         138.1827  140.9682  160.4292 C.2     1  UNL1        0.3413
     33 O         137.3819  139.7204  160.2015 O.2     1  UNL1       -0.2449
@<TRIPOS>BOND
     1    23    24    1
     2    24    25   ar
     3    25    20    1
     4    20    21    1
     5    20    19    1
     6    19     1    1
     7     1     2    1
     8     2     3    1
     9     3     4    1
    10     4     5    1
    11     5     6    1
    12     4     7    1
    13     7     8    1
    14     8     9    1
    15     9    11    1
    16    11    12   ar
    17    12    13   ar
    18    13    14   ar
    19    14    15    2
    20    14    16   ar
    21    16    17    1
    22    16    18   ar
    23     9    10    1
    24    25    26   ar
    25    26    27   ar
    26    27    28   ar
    27    28    29   ar
    28    29    30    1
    29    30    31    1
    30    31    32    1
    31    32    33    2
    32    29    24   ar
    33     6     1    1
    34    18    11   ar
    35    32    28    1
    36    10     4    1
    37    21    22    1
