@<TRIPOS>MOLECULE
*****
 28 31 0 0 0
SMALL
GASTEIGER

@<TRIPOS>ATOM
      1 C         140.4895  137.5045  155.6180 C.3     1  UNL1        0.0307
      2 C         140.8720  137.8079  157.0364 C.ar    1  UNL1       -0.0248
      3 C         139.8930  138.4856  157.9486 C.ar    1  UNL1       -0.0074
      4 C         140.2755  138.7890  159.3670 C.ar    1  UNL1       -0.0066
      5 C         141.6371  138.4147  159.8730 C.ar    1  UNL1       -0.0231
      6 C         142.6161  137.7370  158.9607 C.ar    1  UNL1       -0.0077
      7 C         142.2336  137.4336  157.5424 C.ar    1  UNL1       -0.0104
      8 C         142.0196  138.7181  161.2913 C.3     1  UNL1        0.0476
      9 C         141.0406  139.3958  162.2036 C.3     1  UNL1        0.0987
     10 N         139.6791  139.7701  161.6975 N.am    1  UNL1       -0.2705
     11 C         138.7000  140.4478  162.6098 C.2     1  UNL1        0.2652
     12 O         137.3385  140.8221  162.1038 O.2     1  UNL1       -0.2683
     13 C         139.2965  139.4667  160.2792 C.3     1  UNL1        0.1202
     14 C         139.0826  140.7512  164.0281 C.ar    1  UNL1        0.1143
     15 C         139.5617  142.0740  164.5484 C.ar    1  UNL1        0.0233
     16 C         139.8284  141.9254  166.0170 C.ar    1  UNL1        0.0182
     17 C         140.3168  142.8954  167.0516 C.ar    1  UNL1        0.0129
     18 C         140.4910  142.4508  168.4736 C.ar    1  UNL1        0.0578
     19 CL        140.9794  143.4208  169.5082 Cl      1  UNL1       -0.0822
     20 C         140.1767  141.0362  168.8610 C.ar    1  UNL1        0.0129
     21 C         139.6883  140.0661  167.8263 C.ar    1  UNL1        0.0181
     22 C         139.5141  140.5107  166.4043 C.ar    1  UNL1        0.0601
     23 N         139.0532  139.7850  165.1751 N.ar    1  UNL1       -0.3216
     24 C         138.6361  138.3459  165.1053 C.3     1  UNL1        0.1306
     25 C         143.2126  136.7559  156.6301 C.3     1  UNL1        0.0989
     26 N         143.1629  135.2676  156.4492 N.3     1  UNL1       -0.2665
     27 C         142.8458  134.6859  155.1034 C.3     1  UNL1        0.0899
     28 C         143.4302  134.3612  157.6140 C.3     1  UNL1        0.0899
@<TRIPOS>BOND
     1     1     2    1
     2     2     3   ar
     3     3     4   ar
     4     4     5   ar
     5     5     6   ar
     6     6     7   ar
     7     7    25    1
     8    25    26    1
     9    26    27    1
    10    26    28    1
    11     5     8    1
    12     8     9    1
    13     9    10    1
    14    10    11   am
    15    11    12    2
    16    11    14    1
    17    14    15   ar
    18    15    16   ar
    19    16    17   ar
    20    17    18   ar
    21    18    19    1
    22    18    20   ar
    23    20    21   ar
    24    21    22   ar
    25    22    23   ar
    26    23    24    1
    27    10    13    1
    28     7     2   ar
    29    23    14   ar
    30    13     4    1
    31    22    16   ar
@<TRIPOS>MOLECULE
*****
 28 31 0 0 0
SMALL
GASTEIGER

@<TRIPOS>ATOM
      1 C         143.3558  142.1047  168.8813 C.3     1  UNL1        0.0307
      2 C         142.5071  142.4272  167.6872 C.ar    1  UNL1       -0.0248
      3 C         143.1415  142.5873  166.3375 C.ar    1  UNL1       -0.0074
      4 C         142.2928  142.9098  165.1434 C.ar    1  UNL1       -0.0066
      5 C         140.8098  143.0723  165.2991 C.ar    1  UNL1       -0.0231
      6 C         140.1755  142.9122  166.6490 C.ar    1  UNL1       -0.0077
      7 C         141.0241  142.5897  167.8430 C.ar    1  UNL1       -0.0104
      8 C         139.9612  143.3948  164.1051 C.3     1  UNL1        0.0476
      9 C         140.5955  143.5549  162.7553 C.3     1  UNL1        0.0987
     10 N         142.0785  143.3924  162.5996 N.am    1  UNL1       -0.2705
     11 C         142.7129  143.5524  161.2497 C.2     1  UNL1        0.2652
     12 O         144.1959  143.3900  161.0939 O.2     1  UNL1       -0.2683
     13 C         142.9272  143.0698  163.7936 C.3     1  UNL1        0.1202
     14 C         141.8642  143.8750  160.0557 C.ar    1  UNL1        0.1143
     15 C         141.5826  145.2470  159.5189 C.ar    1  UNL1        0.0233
     16 C         140.6925  145.1021  158.3202 C.ar    1  UNL1        0.0182
     17 C         140.0917  146.1122  157.3882 C.ar    1  UNL1        0.0129
     18 C         139.2225  145.6607  156.2521 C.ar    1  UNL1        0.0578
     19 CL        138.6218  146.6708  155.3201 Cl      1  UNL1       -0.0822
     20 C         138.9540  144.1991  156.0482 C.ar    1  UNL1        0.0129
     21 C         139.5547  143.1890  156.9803 C.ar    1  UNL1        0.0181
     22 C         140.4240  143.6405  158.1163 C.ar    1  UNL1        0.0601
     23 N         141.1482  142.8821  159.1889 N.ar    1  UNL1       -0.3216
     24 C         141.1550  141.3924  159.3639 C.3     1  UNL1        0.1306
     25 C         140.3898  142.4296  169.1929 C.3     1  UNL1        0.0989
     26 N         140.1101  141.0582  169.7322 N.3     1  UNL1       -0.2665
     27 C         140.7034  140.6321  171.0423 C.3     1  UNL1        0.0899
     28 C         139.2371  140.1128  168.9614 C.3     1  UNL1        0.0899
@<TRIPOS>BOND
     1     1     2    1
     2     2     3   ar
     3     3     4   ar
     4     4     5   ar
     5     5     6   ar
     6     6     7   ar
     7     7    25    1
     8    25    26    1
     9    26    27    1
    10    26    28    1
    11     5     8    1
    12     8     9    1
    13     9    10    1
    14    10    11   am
    15    11    12    2
    16    11    14    1
    17    14    15   ar
    18    15    16   ar
    19    16    17   ar
    20    17    18   ar
    21    18    19    1
    22    18    20   ar
    23    20    21   ar
    24    21    22   ar
    25    22    23   ar
    26    23    24    1
    27    10    13    1
    28     7     2   ar
    29    23    14   ar
    30    13     4    1
    31    22    16   ar
@<TRIPOS>MOLECULE
*****
 28 31 0 0 0
SMALL
GASTEIGER

@<TRIPOS>ATOM
      1 C         140.4189  142.7657  169.6269 C.3     1  UNL1        0.0307
      2 C         140.9130  142.7253  168.2111 C.ar    1  UNL1       -0.0248
      3 C         140.0587  143.2654  167.1028 C.ar    1  UNL1       -0.0074
      4 C         140.5529  143.2250  165.6871 C.ar    1  UNL1       -0.0066
      5 C         141.9013  142.6444  165.3797 C.ar    1  UNL1       -0.0231
      6 C         142.7557  142.1042  166.4881 C.ar    1  UNL1       -0.0077
      7 C         142.2615  142.1446  167.9037 C.ar    1  UNL1       -0.0104
      8 C         142.3955  142.6040  163.9641 C.3     1  UNL1        0.0476
      9 C         141.5412  143.1441  162.8558 C.3     1  UNL1        0.0987
     10 N         140.1927  143.7247  163.1632 N.am    1  UNL1       -0.2705
     11 C         139.3384  144.2649  162.0548 C.2     1  UNL1        0.2652
     12 O         137.9899  144.8456  162.3622 O.2     1  UNL1       -0.2683
     13 C         139.6985  143.7652  164.5788 C.3     1  UNL1        0.1202
     14 C         139.8325  144.2245  160.6392 C.ar    1  UNL1        0.1143
     15 C         140.7042  145.2519  159.9798 C.ar    1  UNL1        0.0233
     16 C         140.9522  144.8120  158.5674 C.ar    1  UNL1        0.0182
     17 C         141.7393  145.4266  157.4482 C.ar    1  UNL1        0.0129
     18 C         141.8081  144.7419  156.1154 C.ar    1  UNL1        0.0578
     19 CL        142.5952  145.3565  154.9962 Cl      1  UNL1       -0.0822
     20 C         141.0898  143.4425  155.9018 C.ar    1  UNL1        0.0129
     21 C         140.3026  142.8278  157.0210 C.ar    1  UNL1        0.0181
     22 C         140.2338  143.5125  158.3539 C.ar    1  UNL1        0.0601
     23 N         139.5419  143.1495  159.6342 N.ar    1  UNL1       -0.3216
     24 C         138.7060  141.9262  159.8685 C.3     1  UNL1        0.1306
     25 C         143.1158  141.6045  169.0121 C.3     1  UNL1        0.0989
     26 N         142.9841  140.1697  169.4293 N.3     1  UNL1       -0.2665
     27 C         142.7243  139.1101  168.4000 C.3     1  UNL1        0.0899
     28 C         143.1124  139.7945  170.8760 C.3     1  UNL1        0.0899
@<TRIPOS>BOND
     1     1     2    1
     2     2     3   ar
     3     3     4   ar
     4     4     5   ar
     5     5     6   ar
     6     6     7   ar
     7     7    25    1
     8    25    26    1
     9    26    27    1
    10    26    28    1
    11     5     8    1
    12     8     9    1
    13     9    10    1
    14    10    11   am
    15    11    12    2
    16    11    14    1
    17    14    15   ar
    18    15    16   ar
    19    16    17   ar
    20    17    18   ar
    21    18    19    1
    22    18    20   ar
    23    20    21   ar
    24    21    22   ar
    25    22    23   ar
    26    23    24    1
    27    10    13    1
    28     7     2   ar
    29    23    14   ar
    30    13     4    1
    31    22    16   ar
@<TRIPOS>MOLECULE
*****
 28 31 0 0 0
SMALL
GASTEIGER

@<TRIPOS>ATOM
      1 C         142.8224  142.8781  170.0193 C.3     1  UNL1        0.0307
      2 C         142.3767  142.4111  168.6653 C.ar    1  UNL1       -0.0248
      3 C         143.3612  142.3360  167.5362 C.ar    1  UNL1       -0.0074
      4 C         142.9155  141.8690  166.1821 C.ar    1  UNL1       -0.0066
      5 C         141.4852  141.4771  165.9573 C.ar    1  UNL1       -0.0231
      6 C         140.5006  141.5521  167.0865 C.ar    1  UNL1       -0.0077
      7 C         140.9463  142.0191  168.4405 C.ar    1  UNL1       -0.0104
      8 C         141.0394  141.0101  164.6034 C.3     1  UNL1        0.0476
      9 C         142.0240  140.9351  163.4743 C.3     1  UNL1        0.0987
     10 N         143.4543  141.3270  163.6991 N.am    1  UNL1       -0.2705
     11 C         144.4389  141.2520  162.5699 C.2     1  UNL1        0.2652
     12 O         145.8692  141.6440  162.7947 O.2     1  UNL1       -0.2683
     13 C         143.9001  141.7940  165.0530 C.3     1  UNL1        0.1202
     14 C         143.9932  140.7850  161.2160 C.ar    1  UNL1        0.1143
     15 C         143.7443  141.6563  160.0206 C.ar    1  UNL1        0.0233
     16 C         143.3153  140.7746  158.8855 C.ar    1  UNL1        0.0182
     17 C         142.9374  141.0782  157.4660 C.ar    1  UNL1        0.0129
     18 C         142.5433  139.9657  156.5404 C.ar    1  UNL1        0.0578
     19 CL        142.1654  140.2693  155.1209 Cl      1  UNL1       -0.0822
     20 C         142.5269  138.5494  157.0342 C.ar    1  UNL1        0.0129
     21 C         142.9049  138.2457  158.4538 C.ar    1  UNL1        0.0181
     22 C         143.2990  139.3582  159.3794 C.ar    1  UNL1        0.0601
     23 N         143.7180  139.3648  160.8197 N.ar    1  UNL1       -0.3216
     24 C         143.8402  138.1621  161.7077 C.3     1  UNL1        0.1306
     25 C         139.9618  142.0942  169.5697 C.3     1  UNL1        0.0989
     26 N         139.6151  140.8583  170.3458 N.3     1  UNL1       -0.2665
     27 C         138.2733  140.2121  170.1671 C.3     1  UNL1        0.0899
     28 C         140.6104  140.2686  171.3008 C.3     1  UNL1        0.0899
@<TRIPOS>BOND
     1     1     2    1
     2     2     3   ar
     3     3     4   ar
     4     4     5   ar
     5     5     6   ar
     6     6     7   ar
     7     7    25    1
     8    25    26    1
     9    26    27    1
    10    26    28    1
    11     5     8    1
    12     8     9    1
    13     9    10    1
    14    10    11   am
    15    11    12    2
    16    11    14    1
    17    14    15   ar
    18    15    16   ar
    19    16    17   ar
    20    17    18   ar
    21    18    19    1
    22    18    20   ar
    23    20    21   ar
    24    21    22   ar
    25    22    23   ar
    26    23    24    1
    27    10    13    1
    28     7     2   ar
    29    23    14   ar
    30    13     4    1
    31    22    16   ar
@<TRIPOS>MOLECULE
*****
 28 31 0 0 0
SMALL
GASTEIGER

@<TRIPOS>ATOM
      1 C         138.8481  140.2749  170.0161 C.3     1  UNL1        0.0307
      2 C         139.4586  140.5174  168.6675 C.ar    1  UNL1       -0.0248
      3 C         139.0451  139.6780  167.4952 C.ar    1  UNL1       -0.0074
      4 C         139.6556  139.9205  166.1466 C.ar    1  UNL1       -0.0066
      5 C         140.6795  141.0025  165.9704 C.ar    1  UNL1       -0.0231
      6 C         141.0929  141.8419  167.1429 C.ar    1  UNL1       -0.0077
      7 C         140.4825  141.5993  168.4914 C.ar    1  UNL1       -0.0104
      8 C         141.2899  141.2450  164.6220 C.3     1  UNL1        0.0476
      9 C         140.8765  140.4056  163.4496 C.3     1  UNL1        0.0987
     10 N         139.8526  139.3237  163.6258 N.am    1  UNL1       -0.2705
     11 C         139.4391  138.4843  162.4533 C.2     1  UNL1        0.2652
     12 O         138.4152  137.4023  162.6295 O.2     1  UNL1       -0.2683
     13 C         139.2421  139.0811  164.9743 C.3     1  UNL1        0.1202
     14 C         140.0496  138.7268  161.1048 C.ar    1  UNL1        0.1143
     15 C         141.4090  138.2764  160.6585 C.ar    1  UNL1        0.0233
     16 C         141.6074  138.7336  159.2437 C.ar    1  UNL1        0.0182
     17 C         142.7545  138.5772  158.2899 C.ar    1  UNL1        0.0129
     18 C         142.6647  139.1537  156.9080 C.ar    1  UNL1        0.0578
     19 CL        143.8118  138.9973  155.9542 Cl      1  UNL1       -0.0822
     20 C         141.4280  139.8866  156.4800 C.ar    1  UNL1        0.0129
     21 C         140.2809  140.0430  157.4338 C.ar    1  UNL1        0.0181
     22 C         140.3706  139.4665  158.8157 C.ar    1  UNL1        0.0601
     23 N         139.4078  139.4623  159.9659 N.ar    1  UNL1       -0.3216
     24 C         138.0430  140.0844  159.9755 C.3     1  UNL1        0.1306
     25 C         140.8959  142.4388  169.6638 C.3     1  UNL1        0.0989
     26 N         142.1837  142.1493  170.3765 N.3     1  UNL1       -0.2665
     27 C         142.5333  140.7395  170.7506 C.3     1  UNL1        0.0899
     28 C         143.1218  143.2698  170.7149 C.3     1  UNL1        0.0899
@<TRIPOS>BOND
     1     1     2    1
     2     2     3   ar
     3     3     4   ar
     4     4     5   ar
     5     5     6   ar
     6     6     7   ar
     7     7    25    1
     8    25    26    1
     9    26    27    1
    10    26    28    1
    11     5     8    1
    12     8     9    1
    13     9    10    1
    14    10    11   am
    15    11    12    2
    16    11    14    1
    17    14    15   ar
    18    15    16   ar
    19    16    17   ar
    20    17    18   ar
    21    18    19    1
    22    18    20   ar
    23    20    21   ar
    24    21    22   ar
    25    22    23   ar
    26    23    24    1
    27    10    13    1
    28     7     2   ar
    29    23    14   ar
    30    13     4    1
    31    22    16   ar
@<TRIPOS>MOLECULE
*****
 28 31 0 0 0
SMALL
GASTEIGER

@<TRIPOS>ATOM
      1 C         143.2710  141.7408  169.7199 C.3     1  UNL1        0.0307
      2 C         142.6107  141.7497  168.3730 C.ar    1  UNL1       -0.0248
      3 C         143.2419  142.4930  167.2333 C.ar    1  UNL1       -0.0074
      4 C         142.5816  142.5019  165.8864 C.ar    1  UNL1       -0.0066
      5 C         141.2902  141.7675  165.6793 C.ar    1  UNL1       -0.0231
      6 C         140.6590  141.0241  166.8192 C.ar    1  UNL1       -0.0077
      7 C         141.3193  141.0152  168.1660 C.ar    1  UNL1       -0.0104
      8 C         140.6299  141.7763  164.3325 C.3     1  UNL1        0.0476
      9 C         141.2611  142.5197  163.1928 C.3     1  UNL1        0.0987
     10 N         142.5525  143.2541  163.3998 N.am    1  UNL1       -0.2705
     11 C         143.1836  143.9975  162.2600 C.2     1  UNL1        0.2652
     12 O         144.4750  144.7319  162.4671 O.2     1  UNL1       -0.2683
     13 C         143.2127  143.2452  164.7466 C.3     1  UNL1        0.1202
     14 C         142.5234  144.0063  160.9132 C.ar    1  UNL1        0.1143
     15 C         142.9753  143.2413  159.7046 C.ar    1  UNL1        0.0233
     16 C         142.0265  143.5440  158.5830 C.ar    1  UNL1        0.0182
     17 C         141.9738  143.0756  157.1589 C.ar    1  UNL1        0.0129
     18 C         140.8828  143.5594  156.2502 C.ar    1  UNL1        0.0578
     19 CL        140.8301  143.0911  154.8262 Cl      1  UNL1       -0.0822
     20 C         139.8445  144.5114  156.7655 C.ar    1  UNL1        0.0129
     21 C         139.8972  144.9798  158.1896 C.ar    1  UNL1        0.0181
     22 C         140.9882  144.4960  159.0983 C.ar    1  UNL1        0.0601
     23 N         141.2953  144.7818  160.5384 N.ar    1  UNL1       -0.3216
     24 C         140.5118  145.6845  161.4447 C.3     1  UNL1        0.1306
     25 C         140.6882  140.2719  169.3058 C.3     1  UNL1        0.0989
     26 N         139.5455  140.8848  170.0598 N.3     1  UNL1       -0.2665
     27 C         138.3134  140.0770  170.3413 C.3     1  UNL1        0.0899
     28 C         139.6349  142.3057  170.5323 C.3     1  UNL1        0.0899
@<TRIPOS>BOND
     1     1     2    1
     2     2     3   ar
     3     3     4   ar
     4     4     5   ar
     5     5     6   ar
     6     6     7   ar
     7     7    25    1
     8    25    26    1
     9    26    27    1
    10    26    28    1
    11     5     8    1
    12     8     9    1
    13     9    10    1
    14    10    11   am
    15    11    12    2
    16    11    14    1
    17    14    15   ar
    18    15    16   ar
    19    16    17   ar
    20    17    18   ar
    21    18    19    1
    22    18    20   ar
    23    20    21   ar
    24    21    22   ar
    25    22    23   ar
    26    23    24    1
    27    10    13    1
    28     7     2   ar
    29    23    14   ar
    30    13     4    1
    31    22    16   ar
@<TRIPOS>MOLECULE
*****
 28 31 0 0 0
SMALL
GASTEIGER

@<TRIPOS>ATOM
      1 C         139.4425  140.1442  169.4778 C.3     1  UNL1        0.0307
      2 C         139.6371  140.6088  168.0649 C.ar    1  UNL1       -0.0248
      3 C         139.1572  139.7614  166.9240 C.ar    1  UNL1       -0.0074
      4 C         139.3517  140.2259  165.5110 C.ar    1  UNL1       -0.0066
      5 C         140.0262  141.5378  165.2390 C.ar    1  UNL1       -0.0231
      6 C         140.5061  142.3852  166.3799 C.ar    1  UNL1       -0.0077
      7 C         140.3115  141.9207  167.7928 C.ar    1  UNL1       -0.0104
      8 C         140.2208  142.0023  163.8261 C.3     1  UNL1        0.0476
      9 C         139.7409  141.1550  162.6852 C.3     1  UNL1        0.0987
     10 N         139.0664  139.8431  162.9573 N.am    1  UNL1       -0.2705
     11 C         138.5865  138.9957  161.8163 C.2     1  UNL1        0.2652
     12 O         137.9120  137.6838  162.0883 O.2     1  UNL1       -0.2683
     13 C         138.8718  139.3785  164.3702 C.3     1  UNL1        0.1202
     14 C         138.7811  139.4602  160.4034 C.ar    1  UNL1        0.1143
     15 C         137.7780  140.2064  159.5746 C.ar    1  UNL1        0.0233
     16 C         138.3899  140.4675  158.2302 C.ar    1  UNL1        0.0182
     17 C         137.8678  141.1622  157.0076 C.ar    1  UNL1        0.0129
     18 C         138.7269  141.2721  155.7830 C.ar    1  UNL1        0.0578
     19 CL        138.2049  141.9668  154.5604 Cl      1  UNL1       -0.0822
     20 C         140.1082  140.6872  155.7809 C.ar    1  UNL1        0.0129
     21 C         140.6303  139.9924  157.0035 C.ar    1  UNL1        0.0181
     22 C         139.7712  139.8826  158.2281 C.ar    1  UNL1        0.0601
     23 N         140.0129  139.2600  159.5713 N.ar    1  UNL1       -0.3216
     24 C         141.2664  138.5602  160.0059 C.3     1  UNL1        0.1306
     25 C         140.7914  142.7680  168.9338 C.3     1  UNL1        0.0989
     26 N         142.0704  142.4235  169.6377 N.3     1  UNL1       -0.2665
     27 C         142.0649  142.1513  171.1128 C.3     1  UNL1        0.0899
     28 C         143.3550  142.3512  168.8665 C.3     1  UNL1        0.0899
@<TRIPOS>BOND
     1     1     2    1
     2     2     3   ar
     3     3     4   ar
     4     4     5   ar
     5     5     6   ar
     6     6     7   ar
     7     7    25    1
     8    25    26    1
     9    26    27    1
    10    26    28    1
    11     5     8    1
    12     8     9    1
    13     9    10    1
    14    10    11   am
    15    11    12    2
    16    11    14    1
    17    14    15   ar
    18    15    16   ar
    19    16    17   ar
    20    17    18   ar
    21    18    19    1
    22    18    20   ar
    23    20    21   ar
    24    21    22   ar
    25    22    23   ar
    26    23    24    1
    27    10    13    1
    28     7     2   ar
    29    23    14   ar
    30    13     4    1
    31    22    16   ar
@<TRIPOS>MOLECULE
*****
 28 31 0 0 0
SMALL
GASTEIGER

@<TRIPOS>ATOM
      1 C         139.4917  138.5934  156.2761 C.3     1  UNL1        0.0307
      2 C         139.5221  139.2666  157.6162 C.ar    1  UNL1       -0.0248
      3 C         139.9177  138.4899  158.8369 C.ar    1  UNL1       -0.0074
      4 C         139.9482  139.1631  160.1770 C.ar    1  UNL1       -0.0066
      5 C         139.5830  140.6130  160.2964 C.ar    1  UNL1       -0.0231
      6 C         139.1875  141.3898  159.0756 C.ar    1  UNL1       -0.0077
      7 C         139.1570  140.7166  157.7356 C.ar    1  UNL1       -0.0104
      8 C         139.6135  141.2863  161.6365 C.3     1  UNL1        0.0476
      9 C         140.0091  140.5095  162.8572 C.3     1  UNL1        0.0987
     10 N         140.3742  139.0595  162.7378 N.am    1  UNL1       -0.2705
     11 C         140.7698  138.2828  163.9586 C.2     1  UNL1        0.2652
     12 O         141.1349  136.8328  163.8392 O.2     1  UNL1       -0.2683
     13 C         140.3438  138.3863  161.3977 C.3     1  UNL1        0.1202
     14 C         140.8003  138.9560  165.2986 C.ar    1  UNL1        0.1143
     15 C         142.0069  139.5578  165.9558 C.ar    1  UNL1        0.0233
     16 C         141.5818  140.1193  167.2801 C.ar    1  UNL1        0.0182
     17 C         142.3429  140.8297  168.3600 C.ar    1  UNL1        0.0129
     18 C         141.6345  141.2854  169.6012 C.ar    1  UNL1        0.0578
     19 CL        142.3955  141.9958  170.6811 Cl      1  UNL1       -0.0822
     20 C         140.1652  141.0307  169.7626 C.ar    1  UNL1        0.0129
     21 C         139.4041  140.3203  168.6827 C.ar    1  UNL1        0.0181
     22 C         140.1124  139.8646  167.4415 C.ar    1  UNL1        0.0601
     23 N         139.6294  139.1456  166.2168 N.ar    1  UNL1       -0.3216
     24 C         138.2225  138.6954  165.9562 C.3     1  UNL1        0.1306
     25 C         138.7614  141.4933  156.5148 C.3     1  UNL1        0.0989
     26 N         137.3320  141.9026  156.3169 N.3     1  UNL1       -0.2665
     27 C         137.0038  143.3086  155.9100 C.3     1  UNL1        0.0899
     28 C         136.2306  140.9059  156.5259 C.3     1  UNL1        0.0899
@<TRIPOS>BOND
     1     1     2    1
     2     2     3   ar
     3     3     4   ar
     4     4     5   ar
     5     5     6   ar
     6     6     7   ar
     7     7    25    1
     8    25    26    1
     9    26    27    1
    10    26    28    1
    11     5     8    1
    12     8     9    1
    13     9    10    1
    14    10    11   am
    15    11    12    2
    16    11    14    1
    17    14    15   ar
    18    15    16   ar
    19    16    17   ar
    20    17    18   ar
    21    18    19    1
    22    18    20   ar
    23    20    21   ar
    24    21    22   ar
    25    22    23   ar
    26    23    24    1
    27    10    13    1
    28     7     2   ar
    29    23    14   ar
    30    13     4    1
    31    22    16   ar
@<TRIPOS>MOLECULE
*****
 28 31 0 0 0
SMALL
GASTEIGER

@<TRIPOS>ATOM
      1 C         139.6445  138.4883  155.2302 C.3     1  UNL1        0.0307
      2 C         139.3849  139.0710  156.5878 C.ar    1  UNL1       -0.0248
      3 C         140.1874  138.6096  157.7680 C.ar    1  UNL1       -0.0074
      4 C         139.9278  139.1923  159.1257 C.ar    1  UNL1       -0.0066
      5 C         138.8656  140.2365  159.3030 C.ar    1  UNL1       -0.0231
      6 C         138.0630  140.6979  158.1227 C.ar    1  UNL1       -0.0077
      7 C         138.3226  140.1151  156.7652 C.ar    1  UNL1       -0.0104
      8 C         138.6059  140.8192  160.6605 C.3     1  UNL1        0.0476
      9 C         139.4084  140.3578  161.8407 C.3     1  UNL1        0.0987
     10 N         140.4707  139.3137  161.6634 N.am    1  UNL1       -0.2705
     11 C         141.2733  138.8523  162.8437 C.2     1  UNL1        0.2652
     12 O         142.3355  137.8081  162.6664 O.2     1  UNL1       -0.2683
     13 C         140.7303  138.7309  160.3059 C.3     1  UNL1        0.1202
     14 C         141.0136  139.4350  164.2013 C.ar    1  UNL1        0.1143
     15 C         140.0721  138.8851  165.2315 C.ar    1  UNL1        0.0233
     16 C         140.1265  139.7802  166.4339 C.ar    1  UNL1        0.0182
     17 C         139.4141  139.7333  167.7531 C.ar    1  UNL1        0.0129
     18 C         139.6767  140.7896  168.7852 C.ar    1  UNL1        0.0578
     19 CL        138.9644  140.7427  170.1044 Cl      1  UNL1       -0.0822
     20 C         140.6518  141.8927  168.4982 C.ar    1  UNL1        0.0129
     21 C         141.3642  141.9396  167.1789 C.ar    1  UNL1        0.0181
     22 C         141.1015  140.8834  166.1468 C.ar    1  UNL1        0.0601
     23 N         141.6498  140.6700  164.7670 N.ar    1  UNL1       -0.3216
     24 C         142.6573  141.5391  164.0745 C.3     1  UNL1        0.1306
     25 C         137.5201  140.5765  155.5848 C.3     1  UNL1        0.0989
     26 N         136.1541  140.0078  155.3382 N.3     1  UNL1       -0.2665
     27 C         135.9812  138.8536  154.3960 C.3     1  UNL1        0.0899
     28 C         134.9611  140.5934  156.0338 C.3     1  UNL1        0.0899
@<TRIPOS>BOND
     1     1     2    1
     2     2     3   ar
     3     3     4   ar
     4     4     5   ar
     5     5     6   ar
     6     6     7   ar
     7     7    25    1
     8    25    26    1
     9    26    27    1
    10    26    28    1
    11     5     8    1
    12     8     9    1
    13     9    10    1
    14    10    11   am
    15    11    12    2
    16    11    14    1
    17    14    15   ar
    18    15    16   ar
    19    16    17   ar
    20    17    18   ar
    21    18    19    1
    22    18    20   ar
    23    20    21   ar
    24    21    22   ar
    25    22    23   ar
    26    23    24    1
    27    10    13    1
    28     7     2   ar
    29    23    14   ar
    30    13     4    1
    31    22    16   ar
