@<TRIPOS>MOLECULE
*****
 33 36 0 0 0
SMALL
GASTEIGER

@<TRIPOS>ATOM
      1 C         141.3485  141.9429  165.3773 C.ar    1  UNL1        0.0906
      2 C         141.1123  142.2513  166.8261 C.ar    1  UNL1        0.1496
      3 O         140.0773  143.3340  166.9067 O.2     1  UNL1       -0.4534
      4 C         139.6738  143.6947  165.5077 C.ar    1  UNL1        0.1454
      5 C         138.6925  144.6950  164.9725 C.ar    1  UNL1        0.0406
      6 C         138.4969  144.8354  163.4919 C.ar    1  UNL1        0.0395
      7 C         139.2826  143.9756  162.5467 C.ar    1  UNL1        0.1311
      8 O         139.0869  144.1161  161.0661 O.3     1  UNL1       -0.5058
      9 C         140.2638  142.9754  163.0820 C.ar    1  UNL1        0.0308
     10 C         140.4595  142.8349  164.5625 C.ar    1  UNL1        0.0421
     11 H         138.4739  144.7409  160.7318 H       1  UNL1        0.2922
     12 C         141.7918  141.5927  167.9899 C.ar    1  UNL1        0.0349
     13 C         141.4139  140.1966  168.3872 C.ar    1  UNL1        0.0061
     14 C         142.0934  139.5380  169.5510 C.ar    1  UNL1        0.0367
     15 C         143.1509  140.2756  170.3176 C.ar    1  UNL1        0.1337
     16 O         143.8304  139.6170  171.4814 O.3     1  UNL1       -0.5055
     17 C         143.5288  141.6717  169.9204 C.ar    1  UNL1        0.0367
     18 C         142.8493  142.3303  168.7565 C.ar    1  UNL1        0.0061
     19 H         143.5943  138.7448  171.7296 H       1  UNL1        0.2922
     20 C         142.7801  138.5178  163.9738 C.3     1  UNL1        0.1109
     21 N         141.8229  139.5390  164.5132 N.am    1  UNL1       -0.2991
     22 C         142.3057  140.9217  164.8379 C.2     1  UNL1        0.2490
     23 O         143.7455  141.2829  164.6232 O.2     1  UNL1       -0.2700
     24 H         140.8779  139.3018  164.6541 H       1  UNL1        0.1498
     25 C         141.0495  142.1156  162.1367 C.3     1  UNL1        0.1024
     26 N         140.5262  140.7677  161.7375 N.3     1  UNL1       -0.2643
     27 C         141.3477  139.8754  160.8549 C.3     1  UNL1        0.0727
     28 C         140.8244  138.5276  160.4558 C.3     1  UNL1        0.0230
     29 C         139.4795  138.0720  160.9391 C.3     1  UNL1        0.0695
     30 C         138.6579  138.9642  161.8217 C.3     1  UNL1        0.2784
     31 F         137.5170  139.4465  162.6677 F       1  UNL1       -0.2028
     32 F         137.7383  137.7838  161.7163 F       1  UNL1       -0.2028
     33 C         139.1813  140.3121  162.2209 C.3     1  UNL1        0.1397
@<TRIPOS>BOND
     1    20    21    1
     2    21    22   am
     3    22    23    2
     4    22     1    1
     5     1     2   ar
     6     2    12    1
     7    12    13   ar
     8    13    14   ar
     9    14    15   ar
    10    15    16    1
    11    15    17   ar
    12    17    18   ar
    13     2     3   ar
    14     3     4   ar
    15     4     5   ar
    16     5     6   ar
    17     6     7   ar
    18     7     8    1
    19     7     9   ar
    20     9    25    1
    21    25    26    1
    22    26    27    1
    23    27    28    1
    24    28    29    1
    25    29    30    1
    26    30    31    1
    27    30    32    1
    28    30    33    1
    29     9    10   ar
    30    10     1   ar
    31    18    12   ar
    32    10     4   ar
    33    33    26    1
    34    21    24    1
    35    16    19    1
    36     8    11    1
@<TRIPOS>MOLECULE
*****
 33 36 0 0 0
SMALL
GASTEIGER

@<TRIPOS>ATOM
      1 C         141.3919  140.4940  163.3746 C.ar    1  UNL1        0.0906
      2 C         141.3600  139.8865  164.7457 C.ar    1  UNL1        0.1496
      3 O         142.7351  139.9982  165.3342 O.2     1  UNL1       -0.4534
      4 C         143.6169  140.6748  164.3269 C.ar    1  UNL1        0.1454
      5 C         145.0685  141.0514  164.3560 C.ar    1  UNL1        0.0406
      6 C         145.6900  141.7345  163.1740 C.ar    1  UNL1        0.0395
      7 C         144.8598  142.0409  161.9629 C.ar    1  UNL1        0.1311
      8 O         145.4813  142.7240  160.7808 O.3     1  UNL1       -0.5058
      9 C         143.4082  141.6642  161.9337 C.ar    1  UNL1        0.0308
     10 C         142.7867  140.9812  163.1157 C.ar    1  UNL1        0.0421
     11 H         146.3881  142.9593  160.7990 H       1  UNL1        0.2922
     12 C         140.1631  139.2746  165.4113 C.ar    1  UNL1        0.0349
     13 C         139.6480  137.9431  164.9513 C.ar    1  UNL1        0.0061
     14 C         138.4511  137.3313  165.6169 C.ar    1  UNL1        0.0367
     15 C         137.7693  138.0509  166.7426 C.ar    1  UNL1        0.1337
     16 O         136.5724  137.4391  167.4082 O.3     1  UNL1       -0.5055
     17 C         138.2844  139.3825  167.2026 C.ar    1  UNL1        0.0367
     18 C         139.4813  139.9943  166.5370 C.ar    1  UNL1        0.0061
     19 H         136.2506  136.6073  167.1209 H       1  UNL1        0.2922
     20 C         138.1543  141.8827  161.5470 C.3     1  UNL1        0.1109
     21 N         139.3137  141.7804  162.4932 N.am    1  UNL1       -0.2991
     22 C         140.2325  140.5963  162.4284 C.2     1  UNL1        0.2490
     23 O         139.9917  139.5148  161.4174 O.2     1  UNL1       -0.2700
     24 H         139.4718  142.4903  163.1567 H       1  UNL1        0.1498
     25 C         142.5780  141.9706  160.7226 C.3     1  UNL1        0.1024
     26 N         141.7357  143.2113  160.6849 N.3     1  UNL1       -0.2643
     27 C         140.9170  143.5253  159.4678 C.3     1  UNL1        0.0727
     28 C         140.0748  144.7659  159.4301 C.3     1  UNL1        0.0230
     29 C         140.0513  145.6926  160.6094 C.3     1  UNL1        0.0695
     30 C         140.8699  145.3786  161.8264 C.3     1  UNL1        0.2784
     31 F         141.4682  145.5115  163.1955 F       1  UNL1       -0.2028
     32 F         140.2354  146.6654  162.2642 F       1  UNL1       -0.2028
     33 C         141.7122  144.1379  161.8642 C.3     1  UNL1        0.1397
@<TRIPOS>BOND
     1    20    21    1
     2    21    22   am
     3    22    23    2
     4    22     1    1
     5     1     2   ar
     6     2    12    1
     7    12    13   ar
     8    13    14   ar
     9    14    15   ar
    10    15    16    1
    11    15    17   ar
    12    17    18   ar
    13     2     3   ar
    14     3     4   ar
    15     4     5   ar
    16     5     6   ar
    17     6     7   ar
    18     7     8    1
    19     7     9   ar
    20     9    25    1
    21    25    26    1
    22    26    27    1
    23    27    28    1
    24    28    29    1
    25    29    30    1
    26    30    31    1
    27    30    32    1
    28    30    33    1
    29     9    10   ar
    30    10     1   ar
    31    18    12   ar
    32    10     4   ar
    33    33    26    1
    34    21    24    1
    35    16    19    1
    36     8    11    1
@<TRIPOS>MOLECULE
*****
 33 36 0 0 0
SMALL
GASTEIGER

@<TRIPOS>ATOM
      1 C         140.4023  141.3368  165.5514 C.ar    1  UNL1        0.0906
      2 C         140.6404  141.9989  166.8761 C.ar    1  UNL1        0.1496
      3 O         139.9476  143.3293  166.8604 O.2     1  UNL1       -0.4534
      4 C         139.2814  143.4893  165.5260 C.ar    1  UNL1        0.1454
      5 C         138.4551  144.5972  164.9432 C.ar    1  UNL1        0.0406
      6 C         137.9100  144.4737  163.5512 C.ar    1  UNL1        0.0395
      7 C         138.1910  143.2422  162.7422 C.ar    1  UNL1        0.1311
      8 O         137.6458  143.1187  161.3502 O.3     1  UNL1       -0.5058
      9 C         139.0173  142.1343  163.3251 C.ar    1  UNL1        0.0308
     10 C         139.5624  142.2578  164.7170 C.ar    1  UNL1        0.0421
     11 H         137.1297  143.8108  160.9861 H       1  UNL1        0.2922
     12 C         141.4321  141.4306  168.0163 C.ar    1  UNL1        0.0349
     13 C         142.6206  142.1749  168.5487 C.ar    1  UNL1        0.0061
     14 C         143.4124  141.6066  169.6889 C.ar    1  UNL1        0.0367
     15 C         143.0157  140.2939  170.2967 C.ar    1  UNL1        0.1337
     16 O         143.8075  139.7255  171.4369 O.3     1  UNL1       -0.5055
     17 C         141.8273  139.5495  169.7643 C.ar    1  UNL1        0.0367
     18 C         141.0355  140.1179  168.6241 C.ar    1  UNL1        0.0061
     19 H         144.5499  140.1905  171.7695 H       1  UNL1        0.2922
     20 C         142.8034  138.5109  164.1374 C.3     1  UNL1        0.1109
     21 N         142.2915  139.8577  164.5545 N.am    1  UNL1       -0.2991
     22 C         140.9143  139.9900  165.1343 C.2     1  UNL1        0.2490
     23 O         140.0493  138.7754  165.2969 O.2     1  UNL1       -0.2700
     24 H         142.8593  140.6548  164.4478 H       1  UNL1        0.1498
     25 C         139.2983  140.9029  162.5161 C.3     1  UNL1        0.1024
     26 N         140.6110  140.7559  161.8052 N.3     1  UNL1       -0.2643
     27 C         141.5518  141.9211  161.7189 C.3     1  UNL1        0.0727
     28 C         142.8644  141.7741  161.0081 C.3     1  UNL1        0.0230
     29 C         143.2363  140.4620  160.3836 C.3     1  UNL1        0.0695
     30 C         142.2956  139.2969  160.4698 C.3     1  UNL1        0.2784
     31 F         141.7443  137.9138  160.2872 F       1  UNL1       -0.2028
     32 F         143.4168  138.6696  159.6956 F       1  UNL1       -0.2028
     33 C         140.9829  139.4438  161.1807 C.3     1  UNL1        0.1397
@<TRIPOS>BOND
     1    20    21    1
     2    21    22   am
     3    22    23    2
     4    22     1    1
     5     1     2   ar
     6     2    12    1
     7    12    13   ar
     8    13    14   ar
     9    14    15   ar
    10    15    16    1
    11    15    17   ar
    12    17    18   ar
    13     2     3   ar
    14     3     4   ar
    15     4     5   ar
    16     5     6   ar
    17     6     7   ar
    18     7     8    1
    19     7     9   ar
    20     9    25    1
    21    25    26    1
    22    26    27    1
    23    27    28    1
    24    28    29    1
    25    29    30    1
    26    30    31    1
    27    30    32    1
    28    30    33    1
    29     9    10   ar
    30    10     1   ar
    31    18    12   ar
    32    10     4   ar
    33    33    26    1
    34    21    24    1
    35    16    19    1
    36     8    11    1
@<TRIPOS>MOLECULE
*****
 33 36 0 0 0
SMALL
GASTEIGER

@<TRIPOS>ATOM
      1 C         140.3793  141.3133  165.5735 C.ar    1  UNL1        0.0906
      2 C         140.6411  141.9835  166.8897 C.ar    1  UNL1        0.1496
      3 O         139.9713  143.3255  166.8677 O.2     1  UNL1       -0.4534
      4 C         139.2956  143.4847  165.5381 C.ar    1  UNL1        0.1454
      5 C         138.4833  144.6014  164.9523 C.ar    1  UNL1        0.0406
      6 C         137.9231  144.4744  163.5667 C.ar    1  UNL1        0.0395
      7 C         138.1752  143.2308  162.7668 C.ar    1  UNL1        0.1311
      8 O         137.6149  143.1039  161.3811 O.3     1  UNL1       -0.5058
      9 C         138.9875  142.1141  163.3526 C.ar    1  UNL1        0.0308
     10 C         139.5477  142.2411  164.7382 C.ar    1  UNL1        0.0421
     11 H         137.1075  143.8015  161.0152 H       1  UNL1        0.2922
     12 C         141.4335  141.4121  168.0279 C.ar    1  UNL1        0.0349
     13 C         141.0303  140.1035  168.6400 C.ar    1  UNL1        0.0061
     14 C         141.8227  139.5320  169.7782 C.ar    1  UNL1        0.0367
     15 C         143.0184  140.2692  170.3043 C.ar    1  UNL1        0.1337
     16 O         143.8109  139.6978  171.4425 O.3     1  UNL1       -0.5055
     17 C         143.4217  141.5779  169.6921 C.ar    1  UNL1        0.0367
     18 C         142.6293  142.1493  168.5539 C.ar    1  UNL1        0.0061
     19 H         143.5590  138.8803  171.8249 H       1  UNL1        0.2922
     20 C         142.6562  138.4501  164.0347 C.3     1  UNL1        0.1109
     21 N         142.1716  139.8094  164.4437 N.am    1  UNL1       -0.2991
     22 C         140.8639  139.9540  165.1645 C.2     1  UNL1        0.2490
     23 O         140.0411  138.7392  165.4761 O.2     1  UNL1       -0.2700
     24 H         142.7117  140.6067  164.2392 H       1  UNL1        0.1498
     25 C         139.2396  140.8705  162.5527 C.3     1  UNL1        0.1024
     26 N         140.4964  140.7407  161.7443 N.3     1  UNL1       -0.2643
     27 C         140.8010  139.4558  161.0325 C.3     1  UNL1        0.0727
     28 C         142.0578  139.3260  160.2240 C.3     1  UNL1        0.0230
     29 C         143.0100  140.4809  160.1274 C.3     1  UNL1        0.0695
     30 C         142.7056  141.7656  160.8391 C.3     1  UNL1        0.2784
     31 F         142.8556  143.1754  161.3292 F       1  UNL1       -0.2028
     32 F         144.0145  142.1253  160.2009 F       1  UNL1       -0.2028
     33 C         141.4487  141.8955  161.6476 C.3     1  UNL1        0.1397
@<TRIPOS>BOND
     1    20    21    1
     2    21    22   am
     3    22    23    2
     4    22     1    1
     5     1     2   ar
     6     2    12    1
     7    12    13   ar
     8    13    14   ar
     9    14    15   ar
    10    15    16    1
    11    15    17   ar
    12    17    18   ar
    13     2     3   ar
    14     3     4   ar
    15     4     5   ar
    16     5     6   ar
    17     6     7   ar
    18     7     8    1
    19     7     9   ar
    20     9    25    1
    21    25    26    1
    22    26    27    1
    23    27    28    1
    24    28    29    1
    25    29    30    1
    26    30    31    1
    27    30    32    1
    28    30    33    1
    29     9    10   ar
    30    10     1   ar
    31    18    12   ar
    32    10     4   ar
    33    33    26    1
    34    21    24    1
    35    16    19    1
    36     8    11    1
@<TRIPOS>MOLECULE
*****
 33 36 0 0 0
SMALL
GASTEIGER

@<TRIPOS>ATOM
      1 C         140.2047  141.6468  165.4954 C.ar    1  UNL1        0.0906
      2 C         140.7025  141.0343  166.7710 C.ar    1  UNL1        0.1496
      3 O         140.4348  139.5596  166.7123 O.2     1  UNL1       -0.4534
      4 C         139.7716  139.2606  165.4005 C.ar    1  UNL1        0.1454
      5 C         139.2789  137.9804  164.7937 C.ar    1  UNL1        0.0406
      6 C         138.6439  137.9902  163.4348 C.ar    1  UNL1        0.0395
      7 C         138.5017  139.2802  162.6827 C.ar    1  UNL1        0.1311
      8 O         137.8667  139.2900  161.3237 O.3     1  UNL1       -0.5058
      9 C         138.9944  140.5604  163.2895 C.ar    1  UNL1        0.0308
     10 C         139.6294  140.5506  164.6484 C.ar    1  UNL1        0.0421
     11 H         137.5589  138.4903  160.9446 H       1  UNL1        0.2922
     12 C         141.3536  141.7678  167.9059 C.ar    1  UNL1        0.0349
     13 C         142.8147  141.5738  168.1842 C.ar    1  UNL1        0.0061
     14 C         143.4658  142.3073  169.3192 C.ar    1  UNL1        0.0367
     15 C         142.6558  143.2347  170.1758 C.ar    1  UNL1        0.1337
     16 O         143.3069  143.9682  171.3107 O.3     1  UNL1       -0.5055
     17 C         141.1947  143.4287  169.8974 C.ar    1  UNL1        0.0367
     18 C         140.5436  142.6952  168.7625 C.ar    1  UNL1        0.0061
     19 H         144.2196  143.8470  171.4846 H       1  UNL1        0.2922
     20 C         141.4864  145.0720  163.9541 C.3     1  UNL1        0.1109
     21 N         141.4205  143.6185  164.3187 N.am    1  UNL1       -0.2991
     22 C         140.2706  143.1003  165.1308 C.2     1  UNL1        0.2490
     23 O         139.1868  144.0357  165.5782 O.2     1  UNL1       -0.2700
     24 H         142.1319  143.0046  164.0251 H       1  UNL1        0.1498
     25 C         138.8522  141.8504  162.5374 C.3     1  UNL1        0.1024
     26 N         139.9757  142.3432  161.6744 N.3     1  UNL1       -0.2643
     27 C         141.2058  141.5042  161.4931 C.3     1  UNL1        0.0727
     28 C         142.3293  141.9970  160.6301 C.3     1  UNL1        0.0230
     29 C         142.2227  143.3288  159.9482 C.3     1  UNL1        0.0695
     30 C         140.9926  144.1679  160.1295 C.3     1  UNL1        0.2784
     31 F         140.0375  145.3166  159.9947 F       1  UNL1       -0.2028
     32 F         141.7845  145.0596  159.2196 F       1  UNL1       -0.2028
     33 C         139.8691  143.6751  160.9925 C.3     1  UNL1        0.1397
@<TRIPOS>BOND
     1    20    21    1
     2    21    22   am
     3    22    23    2
     4    22     1    1
     5     1     2   ar
     6     2    12    1
     7    12    13   ar
     8    13    14   ar
     9    14    15   ar
    10    15    16    1
    11    15    17   ar
    12    17    18   ar
    13     2     3   ar
    14     3     4   ar
    15     4     5   ar
    16     5     6   ar
    17     6     7   ar
    18     7     8    1
    19     7     9   ar
    20     9    25    1
    21    25    26    1
    22    26    27    1
    23    27    28    1
    24    28    29    1
    25    29    30    1
    26    30    31    1
    27    30    32    1
    28    30    33    1
    29     9    10   ar
    30    10     1   ar
    31    18    12   ar
    32    10     4   ar
    33    33    26    1
    34    21    24    1
    35    16    19    1
    36     8    11    1
@<TRIPOS>MOLECULE
*****
 33 36 0 0 0
SMALL
GASTEIGER

@<TRIPOS>ATOM
      1 C         141.7183  142.1737  165.2688 C.ar    1  UNL1        0.0906
      2 C         141.2678  142.2915  166.6947 C.ar    1  UNL1        0.1496
      3 O         140.0639  143.1857  166.7280 O.2     1  UNL1       -0.4534
      4 C         139.7704  143.6205  165.3227 C.ar    1  UNL1        0.1454
      5 C         138.7042  144.5052  164.7479 C.ar    1  UNL1        0.0406
      6 C         138.6604  144.7644  163.2711 C.ar    1  UNL1        0.0395
      7 C         139.6829  144.1389  162.3692 C.ar    1  UNL1        0.1311
      8 O         139.6391  144.3982  160.8924 O.3     1  UNL1       -0.5058
      9 C         140.7491  143.2543  162.9441 C.ar    1  UNL1        0.0308
     10 C         140.7929  142.9951  164.4209 C.ar    1  UNL1        0.0421
     11 H         138.9731  144.9508  160.5333 H       1  UNL1        0.2922
     12 C         141.9086  141.6311  167.8792 C.ar    1  UNL1        0.0349
     13 C         141.5650  140.2123  168.2238 C.ar    1  UNL1        0.0061
     14 C         142.2058  139.5518  169.4084 C.ar    1  UNL1        0.0367
     15 C         143.1903  140.3102  170.2483 C.ar    1  UNL1        0.1337
     16 O         143.8312  139.6498  171.4329 O.3     1  UNL1       -0.5055
     17 C         143.5340  141.7290  169.9037 C.ar    1  UNL1        0.0367
     18 C         142.8932  142.3895  168.7191 C.ar    1  UNL1        0.0061
     19 H         143.6165  138.7635  171.6481 H       1  UNL1        0.2922
     20 C         145.3605  141.2590  163.9851 C.3     1  UNL1        0.1109
     21 N         144.1901  142.0579  164.4768 N.am    1  UNL1       -0.2991
     22 C         142.8887  141.3748  164.7771 C.2     1  UNL1        0.2490
     23 O         142.7580  139.8929  164.5856 O.2     1  UNL1       -0.2700
     24 H         144.2759  143.0306  164.6024 H       1  UNL1        0.1498
     25 C         141.7716  142.6288  162.0422 C.3     1  UNL1        0.1024
     26 N         141.6471  141.1851  161.6549 N.3     1  UNL1       -0.2643
     27 C         140.3286  140.4829  161.7917 C.3     1  UNL1        0.0727
     28 C         140.2041  139.0391  161.4044 C.3     1  UNL1        0.0230
     29 C         141.3980  138.2976  160.8802 C.3     1  UNL1        0.0695
     30 C         142.7164  138.9997  160.7434 C.3     1  UNL1        0.2784
     31 F         144.1665  139.2281  160.4348 F       1  UNL1       -0.2028
     32 F         143.0955  137.6352  160.2489 F       1  UNL1       -0.2028
     33 C         142.8410  140.4436  161.1307 C.3     1  UNL1        0.1397
@<TRIPOS>BOND
     1    20    21    1
     2    21    22   am
     3    22    23    2
     4    22     1    1
     5     1     2   ar
     6     2    12    1
     7    12    13   ar
     8    13    14   ar
     9    14    15   ar
    10    15    16    1
    11    15    17   ar
    12    17    18   ar
    13     2     3   ar
    14     3     4   ar
    15     4     5   ar
    16     5     6   ar
    17     6     7   ar
    18     7     8    1
    19     7     9   ar
    20     9    25    1
    21    25    26    1
    22    26    27    1
    23    27    28    1
    24    28    29    1
    25    29    30    1
    26    30    31    1
    27    30    32    1
    28    30    33    1
    29     9    10   ar
    30    10     1   ar
    31    18    12   ar
    32    10     4   ar
    33    33    26    1
    34    21    24    1
    35    16    19    1
    36     8    11    1
@<TRIPOS>MOLECULE
*****
 33 36 0 0 0
SMALL
GASTEIGER

@<TRIPOS>ATOM
      1 C         141.2025  141.0790  165.5155 C.ar    1  UNL1        0.0906
      2 C         141.0366  140.7732  166.9746 C.ar    1  UNL1        0.1496
      3 O         140.1951  139.5375  167.0964 O.2     1  UNL1       -0.4534
      4 C         139.8409  139.0796  165.7126 C.ar    1  UNL1        0.1454
      5 C         139.0318  137.9182  165.2161 C.ar    1  UNL1        0.0406
      6 C         138.8454  137.7095  163.7425 C.ar    1  UNL1        0.0395
      7 C         139.4680  138.6622  162.7654 C.ar    1  UNL1        0.1311
      8 O         139.2815  138.4534  161.2917 O.3     1  UNL1       -0.5058
      9 C         140.2770  139.8236  163.2619 C.ar    1  UNL1        0.0308
     10 C         140.4635  140.0323  164.7355 C.ar    1  UNL1        0.0421
     11 H         138.7761  137.7279  160.9815 H       1  UNL1        0.2922
     12 C         141.6114  141.5643  168.1121 C.ar    1  UNL1        0.0349
     13 C         140.7878  142.6258  168.7790 C.ar    1  UNL1        0.0061
     14 C         141.3625  143.4168  169.9165 C.ar    1  UNL1        0.0367
     15 C         142.7608  143.1463  170.3871 C.ar    1  UNL1        0.1337
     16 O         143.3356  143.9374  171.5246 O.3     1  UNL1       -0.5055
     17 C         143.5844  142.0848  169.7202 C.ar    1  UNL1        0.0367
     18 C         143.0097  141.2938  168.5827 C.ar    1  UNL1        0.0061
     19 H         142.8211  144.6005  171.9412 H       1  UNL1        0.2922
     20 C         144.0904  143.1471  163.7453 C.3     1  UNL1        0.1109
     21 N         143.3206  141.9966  164.3231 N.am    1  UNL1       -0.2991
     22 C         141.9722  142.2295  164.9377 C.2     1  UNL1        0.2490
     23 O         141.3936  143.6129  164.9743 O.2     1  UNL1       -0.2700
     24 H         143.7004  141.0886  164.2991 H       1  UNL1        0.1498
     25 C         140.8996  140.7763  162.2848 C.3     1  UNL1        0.1024
     26 N         140.3575  142.1678  162.1449 N.3     1  UNL1       -0.2643
     27 C         141.1694  143.2231  161.4538 C.3     1  UNL1        0.0727
     28 C         140.6273  144.6146  161.3138 C.3     1  UNL1        0.0230
     29 C         139.2734  144.9511  161.8649 C.3     1  UNL1        0.0695
     30 C         138.4615  143.8959  162.5560 C.3     1  UNL1        0.2784
     31 F         137.3242  143.2456  163.2866 F       1  UNL1       -0.2028
     32 F         137.5244  145.0617  162.6697 F       1  UNL1       -0.2028
     33 C         139.0036  142.5043  162.6960 C.3     1  UNL1        0.1397
@<TRIPOS>BOND
     1    20    21    1
     2    21    22   am
     3    22    23    2
     4    22     1    1
     5     1     2   ar
     6     2    12    1
     7    12    13   ar
     8    13    14   ar
     9    14    15   ar
    10    15    16    1
    11    15    17   ar
    12    17    18   ar
    13     2     3   ar
    14     3     4   ar
    15     4     5   ar
    16     5     6   ar
    17     6     7   ar
    18     7     8    1
    19     7     9   ar
    20     9    25    1
    21    25    26    1
    22    26    27    1
    23    27    28    1
    24    28    29    1
    25    29    30    1
    26    30    31    1
    27    30    32    1
    28    30    33    1
    29     9    10   ar
    30    10     1   ar
    31    18    12   ar
    32    10     4   ar
    33    33    26    1
    34    21    24    1
    35    16    19    1
    36     8    11    1
@<TRIPOS>MOLECULE
*****
 33 36 0 0 0
SMALL
GASTEIGER

@<TRIPOS>ATOM
      1 C         141.4346  140.9280  165.4923 C.ar    1  UNL1        0.0906
      2 C         141.0960  140.7794  166.9460 C.ar    1  UNL1        0.1496
      3 O         140.1011  139.6647  167.0785 O.2     1  UNL1       -0.4534
      4 C         139.8249  139.1244  165.7067 C.ar    1  UNL1        0.1454
      5 C         138.9293  138.0223  165.2237 C.ar    1  UNL1        0.0406
      6 C         138.8580  137.7010  163.7603 C.ar    1  UNL1        0.0395
      7 C         139.6821  138.4818  162.7799 C.ar    1  UNL1        0.1311
      8 O         139.6107  138.1605  161.3164 O.3     1  UNL1       -0.5058
      9 C         140.5777  139.5839  163.2630 C.ar    1  UNL1        0.0308
     10 C         140.6490  139.9052  164.7264 C.ar    1  UNL1        0.0421
     11 H         139.0513  137.4720  161.0147 H       1  UNL1        0.2922
     12 C         141.6543  141.6012  168.0698 C.ar    1  UNL1        0.0349
     13 C         143.0790  141.4140  168.5000 C.ar    1  UNL1        0.0061
     14 C         143.6372  142.2358  169.6239 C.ar    1  UNL1        0.0367
     15 C         142.7708  143.2448  170.3175 C.ar    1  UNL1        0.1337
     16 O         143.3290  144.0666  171.4413 O.3     1  UNL1       -0.5055
     17 C         141.3461  143.4320  169.8872 C.ar    1  UNL1        0.0367
     18 C         140.7878  142.6102  168.7634 C.ar    1  UNL1        0.0061
     19 H         144.2190  143.9497  171.7100 H       1  UNL1        0.2922
     20 C         142.8689  144.2954  163.9580 C.3     1  UNL1        0.1109
     21 N         141.9125  143.2989  164.5431 N.am    1  UNL1       -0.2991
     22 C         142.3910  141.9246  164.9072 C.2     1  UNL1        0.2490
     23 O         143.8256  141.5469  164.6860 O.2     1  UNL1       -0.2700
     24 H         140.9709  143.5468  164.6883 H       1  UNL1        0.1498
     25 C         141.4018  140.3647  162.2826 C.3     1  UNL1        0.1024
     26 N         140.9309  141.7077  161.8088 N.3     1  UNL1       -0.2643
     27 C         139.5565  142.1899  162.1674 C.3     1  UNL1        0.0727
     28 C         139.0855  143.5329  161.6936 C.3     1  UNL1        0.0230
     29 C         139.9890  144.3937  160.8612 C.3     1  UNL1        0.0695
     30 C         141.3633  143.9115  160.5026 C.3     1  UNL1        0.2784
     31 F         142.7402  143.8936  159.9077 F       1  UNL1       -0.2028
     32 F         141.3705  145.2484  159.8222 F       1  UNL1       -0.2028
     33 C         141.8343  142.5685  160.9764 C.3     1  UNL1        0.1397
@<TRIPOS>BOND
     1    20    21    1
     2    21    22   am
     3    22    23    2
     4    22     1    1
     5     1     2   ar
     6     2    12    1
     7    12    13   ar
     8    13    14   ar
     9    14    15   ar
    10    15    16    1
    11    15    17   ar
    12    17    18   ar
    13     2     3   ar
    14     3     4   ar
    15     4     5   ar
    16     5     6   ar
    17     6     7   ar
    18     7     8    1
    19     7     9   ar
    20     9    25    1
    21    25    26    1
    22    26    27    1
    23    27    28    1
    24    28    29    1
    25    29    30    1
    26    30    31    1
    27    30    32    1
    28    30    33    1
    29     9    10   ar
    30    10     1   ar
    31    18    12   ar
    32    10     4   ar
    33    33    26    1
    34    21    24    1
    35    16    19    1
    36     8    11    1
@<TRIPOS>MOLECULE
*****
 33 36 0 0 0
SMALL
GASTEIGER

@<TRIPOS>ATOM
      1 C         140.1608  141.1985  165.8459 C.ar    1  UNL1        0.0906
      2 C         140.6828  141.9315  167.0460 C.ar    1  UNL1        0.1496
      3 O         140.2796  143.3709  166.9215 O.2     1  UNL1       -0.4534
      4 C         139.5085  143.5275  165.6444 C.ar    1  UNL1        0.1454
      5 C         138.8637  144.7192  165.0010 C.ar    1  UNL1        0.0406
      6 C         138.1455  144.5683  163.6929 C.ar    1  UNL1        0.0395
      7 C         138.0721  143.2256  163.0281 C.ar    1  UNL1        0.1311
      8 O         137.3538  143.0747  161.7199 O.3     1  UNL1       -0.5058
      9 C         138.7169  142.0339  163.6715 C.ar    1  UNL1        0.0308
     10 C         139.4351  142.1849  164.9797 C.ar    1  UNL1        0.0421
     11 H         136.9510  143.8192  161.3180 H       1  UNL1        0.2922
     12 C         141.4697  141.3306  168.1728 C.ar    1  UNL1        0.0349
     13 C         141.0438  140.0228  168.7712 C.ar    1  UNL1        0.0061
     14 C         141.8308  139.4219  169.8980 C.ar    1  UNL1        0.0367
     15 C         143.0436  140.1288  170.4264 C.ar    1  UNL1        0.1337
     16 O         143.8306  139.5279  171.5532 O.3     1  UNL1       -0.5055
     17 C         143.4695  141.4366  169.8280 C.ar    1  UNL1        0.0367
     18 C         142.6826  142.0375  168.7012 C.ar    1  UNL1        0.0061
     19 H         143.5645  138.7109  171.9270 H       1  UNL1        0.2922
     20 C         141.7588  137.7815  164.6126 C.3     1  UNL1        0.1109
     21 N         141.5855  139.2441  164.8967 N.am    1  UNL1       -0.2991
     22 C         140.3341  139.7359  165.5619 C.2     1  UNL1        0.2490
     23 O         139.2563  138.7649  165.9430 O.2     1  UNL1       -0.2700
     24 H         142.2930  139.8814  164.6465 H       1  UNL1        0.1498
     25 C         138.6434  140.6913  163.0068 C.3     1  UNL1        0.1024
     26 N         139.2909  140.4796  161.6704 N.3     1  UNL1       -0.2643
     27 C         140.7854  140.4057  161.5643 C.3     1  UNL1        0.0727
     28 C         141.4328  140.1941  160.2280 C.3     1  UNL1        0.0230
     29 C         140.5859  140.0562  158.9976 C.3     1  UNL1        0.0695
     30 C         139.0915  140.1301  159.1037 C.3     1  UNL1        0.2784
     31 F         137.6478  140.1304  158.6965 F       1  UNL1       -0.2028
     32 F         139.2376  139.9185  157.6259 F       1  UNL1       -0.2028
     33 C         138.4440  140.3417  160.4401 C.3     1  UNL1        0.1397
@<TRIPOS>BOND
     1    20    21    1
     2    21    22   am
     3    22    23    2
     4    22     1    1
     5     1     2   ar
     6     2    12    1
     7    12    13   ar
     8    13    14   ar
     9    14    15   ar
    10    15    16    1
    11    15    17   ar
    12    17    18   ar
    13     2     3   ar
    14     3     4   ar
    15     4     5   ar
    16     5     6   ar
    17     6     7   ar
    18     7     8    1
    19     7     9   ar
    20     9    25    1
    21    25    26    1
    22    26    27    1
    23    27    28    1
    24    28    29    1
    25    29    30    1
    26    30    31    1
    27    30    32    1
    28    30    33    1
    29     9    10   ar
    30    10     1   ar
    31    18    12   ar
    32    10     4   ar
    33    33    26    1
    34    21    24    1
    35    16    19    1
    36     8    11    1
