@<TRIPOS>MOLECULE
*****
 38 40 0 0 0
SMALL
GASTEIGER

@<TRIPOS>ATOM
      1 N         143.1943  139.1118  163.4491 N.am    1  UNL1       -0.2797
      2 C         144.3565  139.6670  162.6803 C.3     1  UNL1        0.0956
      3 C         144.4048  138.9761  161.3498 C.3     1  UNL1        0.0505
      4 C         143.2724  137.9938  161.2962 C.3     1  UNL1        0.1507
      5 C         142.5243  138.0777  162.5937 C.2     1  UNL1        0.2435
      6 O         141.3179  137.2694  162.9697 O.2     1  UNL1       -0.2731
      7 C         141.9384  140.3338  167.5939 C.3     1  UNL1        0.0577
      8 C         142.8803  139.1819  167.4046 C.3     1  UNL1        0.0177
      9 C         143.2989  138.7745  166.0230 C.3     1  UNL1        0.0212
     10 C         142.7757  139.5191  164.8307 C.3     1  UNL1        0.0771
     11 C         141.8338  140.6711  165.0199 C.3     1  UNL1        0.0431
     12 C         141.4152  141.0784  166.4015 C.3     1  UNL1        0.0194
     13 N         141.5198  140.7411  168.9755 N.3     1  UNL1       -0.2741
     14 C         140.7023  139.8070  169.8175 C.3     1  UNL1        0.0896
     15 C         140.8846  143.1528  169.7038 C.3     1  UNL1        0.0173
     16 C         141.9186  142.0827  169.5151 C.3     1  UNL1        0.0576
     17 C         143.3515  142.3541  169.8660 C.3     1  UNL1        0.0173
     18 C         141.3105  141.4157  163.8275 C.3     1  UNL1        0.1524
     19 S         141.0374  142.8875  163.9230 S.O2    1  UNL1       -0.0116
     20 O         142.5112  143.1636  163.8826 O.2     1  UNL1       -0.1730
     21 O         139.5636  142.6115  163.9635 O.2     1  UNL1       -0.1730
     22 C         140.7644  144.3594  164.0185 C.3     1  UNL1        0.1292
     23 C         139.4035  144.8452  164.4211 C.3     1  UNL1        0.0253
     24 C         141.8522  145.3455  163.7115 C.3     1  UNL1        0.0253
     25 N         142.9454  137.0870  160.1470 N.am    1  UNL1       -0.2948
     26 C         142.6950  137.6629  158.7848 C.2     1  UNL1        0.2461
     27 O         142.7715  139.1457  158.5718 O.2     1  UNL1       -0.2701
     28 H         142.8952  136.1137  160.2868 H       1  UNL1        0.1501
     29 C         142.3681  136.7559  157.6357 C.ar    1  UNL1        0.0531
     30 C         141.2704  137.1211  156.6809 C.ar    1  UNL1        0.0045
     31 C         140.9434  136.2141  155.5317 C.ar    1  UNL1       -0.0002
     32 C         141.7141  134.9420  155.3373 C.ar    1  UNL1       -0.0043
     33 C         142.8118  134.5769  156.2922 C.ar    1  UNL1       -0.0227
     34 C         143.1388  135.4839  157.4414 C.ar    1  UNL1        0.0002
     35 C         143.5825  133.3048  156.0979 C.3     1  UNL1        0.0189
     36 C         144.1762  133.4553  157.4671 C.3     1  UNL1        0.0044
     37 C         142.9888  133.1542  154.7287 C.3     1  UNL1        0.0044
     38 C         144.3532  132.0327  155.9036 C.3     1  UNL1        0.0044
@<TRIPOS>BOND
     1    15    16    1
     2    16    17    1
     3    16    13    1
     4    13    14    1
     5     7    13    1
     6     7     8    1
     7     8     9    1
     8     9    10    1
     9    10     1    1
    10     1     2    1
    11     2     3    1
    12     3     4    1
    13     4    25    1
    14    25    26   am
    15    26    27    2
    16    26    29    1
    17    29    30   ar
    18    30    31   ar
    19    31    32   ar
    20    32    33   ar
    21    33    35    1
    22    35    36    1
    23    35    37    1
    24    35    38    1
    25    33    34   ar
    26     4     5    1
    27     5     6    2
    28    10    11    1
    29    11    18    1
    30    18    19    1
    31    19    20    2
    32    19    21    2
    33    19    22    1
    34    22    23    1
    35    22    24    1
    36    11    12    1
    37    12     7    1
    38     5     1   am
    39    34    29   ar
    40    25    28    1
@<TRIPOS>MOLECULE
*****
 38 40 0 0 0
SMALL
GASTEIGER

@<TRIPOS>ATOM
      1 N         141.4774  139.0598  164.1464 N.am    1  UNL1       -0.2797
      2 C         140.2204  138.3269  163.7818 C.3     1  UNL1        0.0956
      3 C         140.4103  137.7305  162.4186 C.3     1  UNL1        0.0505
      4 C         141.7847  138.0948  161.9407 C.3     1  UNL1        0.1507
      5 C         142.4441  138.9163  163.0085 C.2     1  UNL1        0.2435
      6 O         143.8276  139.4930  162.9489 O.2     1  UNL1       -0.2731
      7 C         142.2179  141.2961  167.9805 C.3     1  UNL1        0.0577
      8 C         142.6042  139.8511  167.8685 C.3     1  UNL1        0.0177
      9 C         142.3574  139.1056  166.5904 C.3     1  UNL1        0.0212
     10 C         141.7242  139.8052  165.4244 C.3     1  UNL1        0.0771
     11 C         141.3378  141.2502  165.5365 C.3     1  UNL1        0.0431
     12 C         141.5846  141.9957  166.8145 C.3     1  UNL1        0.0194
     13 N         142.4647  142.0415  169.2586 N.3     1  UNL1       -0.2741
     14 C         143.8662  142.3857  169.6674 C.3     1  UNL1        0.0896
     15 C         140.8166  141.5126  171.1961 C.3     1  UNL1        0.0173
     16 C         141.3100  142.4428  170.1278 C.3     1  UNL1        0.0576
     17 C         140.6486  143.7744  169.9287 C.3     1  UNL1        0.0173
     18 C         140.7045  141.9499  164.3704 C.3     1  UNL1        0.1524
     19 S         141.2342  143.2770  163.9143 S.O2    1  UNL1       -0.0116
     20 O         142.4449  142.5984  163.3456 O.2     1  UNL1       -0.1730
     21 O         140.0234  143.9557  164.4830 O.2     1  UNL1       -0.1730
     22 C         141.7639  144.6042  163.4581 C.3     1  UNL1        0.1292
     23 C         140.9453  145.4631  162.5404 C.3     1  UNL1        0.0253
     24 C         143.1121  145.0725  163.9197 C.3     1  UNL1        0.0253
     25 N         142.3929  137.7058  160.6259 N.am    1  UNL1       -0.2948
     26 C         142.0126  138.4432  159.3762 C.2     1  UNL1        0.2461
     27 O         141.0242  139.5696  159.4414 O.2     1  UNL1       -0.2701
     28 H         143.0416  136.9665  160.5831 H       1  UNL1        0.1501
     29 C         142.6208  138.0542  158.0614 C.ar    1  UNL1        0.0531
     30 C         143.1911  139.1072  157.1581 C.ar    1  UNL1        0.0045
     31 C         143.7993  138.7182  155.8432 C.ar    1  UNL1       -0.0002
     32 C         143.8373  137.2763  155.4317 C.ar    1  UNL1       -0.0043
     33 C         143.2671  136.2233  156.3351 C.ar    1  UNL1       -0.0227
     34 C         142.6589  136.6123  157.6500 C.ar    1  UNL1        0.0002
     35 C         143.3051  134.7813  155.9237 C.3     1  UNL1        0.0189
     36 C         143.0184  135.1783  154.5059 C.3     1  UNL1        0.0044
     37 C         143.5919  134.3843  157.3414 C.3     1  UNL1        0.0044
     38 C         143.3432  133.3394  155.5122 C.3     1  UNL1        0.0044
@<TRIPOS>BOND
     1    15    16    1
     2    16    17    1
     3    16    13    1
     4    13    14    1
     5     7    13    1
     6     7     8    1
     7     8     9    1
     8     9    10    1
     9    10     1    1
    10     1     2    1
    11     2     3    1
    12     3     4    1
    13     4    25    1
    14    25    26   am
    15    26    27    2
    16    26    29    1
    17    29    30   ar
    18    30    31   ar
    19    31    32   ar
    20    32    33   ar
    21    33    35    1
    22    35    36    1
    23    35    37    1
    24    35    38    1
    25    33    34   ar
    26     4     5    1
    27     5     6    2
    28    10    11    1
    29    11    18    1
    30    18    19    1
    31    19    20    2
    32    19    21    2
    33    19    22    1
    34    22    23    1
    35    22    24    1
    36    11    12    1
    37    12     7    1
    38     5     1   am
    39    34    29   ar
    40    25    28    1
@<TRIPOS>MOLECULE
*****
 38 40 0 0 0
SMALL
GASTEIGER

@<TRIPOS>ATOM
      1 N         138.9651  139.1880  163.5617 N.am    1  UNL1       -0.2797
      2 C         138.8389  137.8597  162.8764 C.3     1  UNL1        0.0956
      3 C         138.3714  138.1049  161.4724 C.3     1  UNL1        0.0505
      4 C         138.2086  139.5848  161.2899 C.3     1  UNL1        0.1507
      5 C         138.5755  140.2542  162.5812 C.2     1  UNL1        0.2435
      6 O         138.5562  141.7306  162.8455 O.2     1  UNL1       -0.2731
      7 C         140.2810  139.8569  167.8127 C.3     1  UNL1        0.0577
      8 C         138.8444  139.5475  167.5121 C.3     1  UNL1        0.0177
      9 C         138.4057  139.3245  166.0951 C.3     1  UNL1        0.0212
     10 C         139.4037  139.4109  164.9787 C.3     1  UNL1        0.0771
     11 C         140.8403  139.7204  165.2792 C.3     1  UNL1        0.0431
     12 C         141.2790  139.9433  166.6962 C.3     1  UNL1        0.0194
     13 N         140.7197  140.0799  169.2296 N.3     1  UNL1       -0.2741
     14 C         139.7119  140.4494  170.2774 C.3     1  UNL1        0.0896
     15 C         143.0585  141.1386  169.6280 C.3     1  UNL1        0.0173
     16 C         142.1661  139.9333  169.5989 C.3     1  UNL1        0.0576
     17 C         142.7201  138.5815  169.9390 C.3     1  UNL1        0.0173
     18 C         141.8384  139.8068  164.1627 C.3     1  UNL1        0.1524
     19 S         143.0285  140.7110  164.2889 S.O2    1  UNL1       -0.0116
     20 O         142.1518  141.9007  164.0321 O.2     1  UNL1       -0.1730
     21 O         143.9051  139.5213  164.5457 O.2     1  UNL1       -0.1730
     22 C         144.2186  141.6154  164.4151 C.3     1  UNL1        0.1292
     23 C         145.5327  141.2140  163.8134 C.3     1  UNL1        0.0253
     24 C         144.0947  142.9209  165.1431 C.3     1  UNL1        0.0253
     25 N         137.7580  140.2743  160.0363 N.am    1  UNL1       -0.2948
     26 C         138.7327  141.0848  159.2343 C.2     1  UNL1        0.2461
     27 O         140.1580  141.2057  159.6858 O.2     1  UNL1       -0.2701
     28 H         136.8226  140.1950  159.7399 H       1  UNL1        0.1501
     29 C         138.2821  141.7742  157.9807 C.ar    1  UNL1        0.0531
     30 C         138.9811  143.0173  157.5158 C.ar    1  UNL1        0.0045
     31 C         138.5304  143.7069  156.2621 C.ar    1  UNL1       -0.0002
     32 C         137.3808  143.1533  155.4735 C.ar    1  UNL1       -0.0043
     33 C         136.6818  141.9102  155.9384 C.ar    1  UNL1       -0.0227
     34 C         137.1325  141.2207  157.1921 C.ar    1  UNL1        0.0002
     35 C         135.5322  141.3567  155.1498 C.3     1  UNL1        0.0189
     36 C         135.0745  140.5900  156.3551 C.3     1  UNL1        0.0044
     37 C         135.9899  142.1234  153.9445 C.3     1  UNL1        0.0044
     38 C         134.3826  140.8031  154.3612 C.3     1  UNL1        0.0044
@<TRIPOS>BOND
     1    15    16    1
     2    16    17    1
     3    16    13    1
     4    13    14    1
     5     7    13    1
     6     7     8    1
     7     8     9    1
     8     9    10    1
     9    10     1    1
    10     1     2    1
    11     2     3    1
    12     3     4    1
    13     4    25    1
    14    25    26   am
    15    26    27    2
    16    26    29    1
    17    29    30   ar
    18    30    31   ar
    19    31    32   ar
    20    32    33   ar
    21    33    35    1
    22    35    36    1
    23    35    37    1
    24    35    38    1
    25    33    34   ar
    26     4     5    1
    27     5     6    2
    28    10    11    1
    29    11    18    1
    30    18    19    1
    31    19    20    2
    32    19    21    2
    33    19    22    1
    34    22    23    1
    35    22    24    1
    36    11    12    1
    37    12     7    1
    38     5     1   am
    39    34    29   ar
    40    25    28    1
@<TRIPOS>MOLECULE
*****
 38 40 0 0 0
SMALL
GASTEIGER

@<TRIPOS>ATOM
      1 N         139.0344  139.1446  163.4841 N.am    1  UNL1       -0.2797
      2 C         139.1319  137.8408  162.7490 C.3     1  UNL1        0.0956
      3 C         138.6238  138.0559  161.3542 C.3     1  UNL1        0.0505
      4 C         138.2122  139.4927  161.2272 C.3     1  UNL1        0.1507
      5 C         138.4660  140.1656  162.5436 C.2     1  UNL1        0.2435
      6 O         138.1983  141.6064  162.8633 O.2     1  UNL1       -0.2731
      7 C         140.2360  139.8666  167.7602 C.3     1  UNL1        0.0577
      8 C         138.8099  139.5433  167.4263 C.3     1  UNL1        0.0177
      9 C         138.4093  139.3026  166.0009 C.3     1  UNL1        0.0212
     10 C         139.4349  139.3853  164.9095 C.3     1  UNL1        0.0771
     11 C         140.8611  139.7086  165.2434 C.3     1  UNL1        0.0431
     12 C         141.2616  139.9493  166.6688 C.3     1  UNL1        0.0194
     13 N         140.6365  140.1073  169.1856 N.3     1  UNL1       -0.2741
     14 C         139.5950  140.4462  170.2103 C.3     1  UNL1        0.0896
     15 C         142.9339  141.2409  169.6179 C.3     1  UNL1        0.0173
     16 C         142.0787  140.0090  169.5862 C.3     1  UNL1        0.0576
     17 C         142.6657  138.6788  169.9551 C.3     1  UNL1        0.0173
     18 C         141.8867  139.7913  164.1520 C.3     1  UNL1        0.1524
     19 S         143.0723  140.6975  164.3040 S.O2    1  UNL1       -0.0116
     20 O         142.1958  141.8874  164.0473 O.2     1  UNL1       -0.1730
     21 O         143.9488  139.5077  164.5607 O.2     1  UNL1       -0.1730
     22 C         144.2580  141.6038  164.4560 C.3     1  UNL1        0.1292
     23 C         144.1345  142.8746  165.2433 C.3     1  UNL1        0.0253
     24 C         145.5670  141.2392  163.8208 C.3     1  UNL1        0.0253
     25 N         137.6462  140.1426  159.9995 N.am    1  UNL1       -0.2948
     26 C         138.5411  140.9256  159.0851 C.2     1  UNL1        0.2461
     27 O         140.0020  141.0587  159.3984 O.2     1  UNL1       -0.2701
     28 H         136.6874  140.0552  159.7938 H       1  UNL1        0.1501
     29 C         137.9751  141.5754  157.8574 C.ar    1  UNL1        0.0531
     30 C         136.8496  140.9201  157.1132 C.ar    1  UNL1        0.0045
     31 C         136.2835  141.5700  155.8854 C.ar    1  UNL1       -0.0002
     32 C         136.8429  142.8750  155.4019 C.ar    1  UNL1       -0.0043
     33 C         137.9684  143.5303  156.1461 C.ar    1  UNL1       -0.0227
     34 C         138.5345  142.8805  157.3739 C.ar    1  UNL1        0.0002
     35 C         138.5279  144.8354  155.6626 C.3     1  UNL1        0.0189
     36 C         139.6645  144.7077  156.6331 C.3     1  UNL1        0.0044
     37 C         137.3913  144.9630  154.6921 C.3     1  UNL1        0.0044
     38 C         139.0873  146.1404  155.1791 C.3     1  UNL1        0.0044
@<TRIPOS>BOND
     1    15    16    1
     2    16    17    1
     3    16    13    1
     4    13    14    1
     5     7    13    1
     6     7     8    1
     7     8     9    1
     8     9    10    1
     9    10     1    1
    10     1     2    1
    11     2     3    1
    12     3     4    1
    13     4    25    1
    14    25    26   am
    15    26    27    2
    16    26    29    1
    17    29    30   ar
    18    30    31   ar
    19    31    32   ar
    20    32    33   ar
    21    33    35    1
    22    35    36    1
    23    35    37    1
    24    35    38    1
    25    33    34   ar
    26     4     5    1
    27     5     6    2
    28    10    11    1
    29    11    18    1
    30    18    19    1
    31    19    20    2
    32    19    21    2
    33    19    22    1
    34    22    23    1
    35    22    24    1
    36    11    12    1
    37    12     7    1
    38     5     1   am
    39    34    29   ar
    40    25    28    1
@<TRIPOS>MOLECULE
*****
 38 40 0 0 0
SMALL
GASTEIGER

@<TRIPOS>ATOM
      1 N         141.2369  144.1555  158.6281 N.am    1  UNL1       -0.2797
      2 C         140.0084  143.4986  158.0719 C.3     1  UNL1        0.0956
      3 C         139.5650  144.2841  156.8734 C.3     1  UNL1        0.0505
      4 C         140.5193  145.4265  156.6889 C.3     1  UNL1        0.1507
      5 C         141.5526  145.3470  157.7733 C.2     1  UNL1        0.2435
      6 O         142.7002  146.2930  157.9687 O.2     1  UNL1       -0.2731
      7 C         143.5659  142.7913  162.2287 C.3     1  UNL1        0.0577
      8 C         144.1109  142.5587  160.8507 C.3     1  UNL1        0.0177
      9 C         143.3345  143.0134  159.6505 C.3     1  UNL1        0.0212
     10 C         142.0132  143.7008  159.8283 C.3     1  UNL1        0.0771
     11 C         141.4683  143.9334  161.2063 C.3     1  UNL1        0.0431
     12 C         142.2446  143.4787  162.4065 C.3     1  UNL1        0.0194
     13 N         144.3423  142.3366  163.4289 N.3     1  UNL1       -0.2741
     14 C         145.5408  141.4514  163.2556 C.3     1  UNL1        0.0896
     15 C         144.4831  144.0219  165.4012 C.3     1  UNL1        0.0173
     16 C         143.9202  142.7670  164.8024 C.3     1  UNL1        0.0576
     17 C         142.9351  141.9426  165.5771 C.3     1  UNL1        0.0173
     18 C         140.1469  144.6208  161.3841 C.3     1  UNL1        0.1524
     19 S         139.1503  144.0867  162.3696 S.O2    1  UNL1       -0.0116
     20 O         139.4844  145.2038  163.3131 O.2     1  UNL1       -0.1730
     21 O         138.8161  142.9695  161.4261 O.2     1  UNL1       -0.1730
     22 C         138.1535  143.5525  163.3552 C.3     1  UNL1        0.1292
     23 C         137.8147  144.3445  164.5832 C.3     1  UNL1        0.0253
     24 C         137.4957  142.2264  163.1128 C.3     1  UNL1        0.0253
     25 N         140.4523  146.4659  155.6095 N.am    1  UNL1       -0.2948
     26 C         139.6225  147.6998  155.8069 C.2     1  UNL1        0.2461
     27 O         138.8599  147.8944  157.0838 O.2     1  UNL1       -0.2701
     28 H         140.9528  146.3382  154.7714 H       1  UNL1        0.1501
     29 C         139.5555  148.7391  154.7275 C.ar    1  UNL1        0.0531
     30 C         139.9585  148.3911  153.3252 C.ar    1  UNL1        0.0045
     31 C         139.8915  149.4304  152.2457 C.ar    1  UNL1       -0.0002
     32 C         139.4214  150.8178  152.5685 C.ar    1  UNL1       -0.0043
     33 C         139.0184  151.1659  153.9708 C.ar    1  UNL1       -0.0227
     34 C         139.0854  150.1265  155.0503 C.ar    1  UNL1        0.0002
     35 C         138.5484  152.5533  154.2936 C.3     1  UNL1        0.0189
     36 C         138.6862  152.2593  155.7580 C.3     1  UNL1        0.0044
     37 C         138.4105  152.8473  152.8292 C.3     1  UNL1        0.0044
     38 C         138.0783  153.9407  154.6164 C.3     1  UNL1        0.0044
@<TRIPOS>BOND
     1    15    16    1
     2    16    17    1
     3    16    13    1
     4    13    14    1
     5     7    13    1
     6     7     8    1
     7     8     9    1
     8     9    10    1
     9    10     1    1
    10     1     2    1
    11     2     3    1
    12     3     4    1
    13     4    25    1
    14    25    26   am
    15    26    27    2
    16    26    29    1
    17    29    30   ar
    18    30    31   ar
    19    31    32   ar
    20    32    33   ar
    21    33    35    1
    22    35    36    1
    23    35    37    1
    24    35    38    1
    25    33    34   ar
    26     4     5    1
    27     5     6    2
    28    10    11    1
    29    11    18    1
    30    18    19    1
    31    19    20    2
    32    19    21    2
    33    19    22    1
    34    22    23    1
    35    22    24    1
    36    11    12    1
    37    12     7    1
    38     5     1   am
    39    34    29   ar
    40    25    28    1
@<TRIPOS>MOLECULE
*****
 38 40 0 0 0
SMALL
GASTEIGER

@<TRIPOS>ATOM
      1 N         143.0949  139.1159  163.1781 N.am    1  UNL1       -0.2797
      2 C         144.1164  139.8926  162.4013 C.3     1  UNL1        0.0956
      3 C         144.1730  139.3257  161.0137 C.3     1  UNL1        0.0505
      4 C         143.1865  138.1986  160.9329 C.3     1  UNL1        0.1507
      5 C         142.5203  138.0690  162.2706 C.2     1  UNL1        0.2435
      6 O         141.4646  137.0681  162.6364 O.2     1  UNL1       -0.2731
      7 C         141.9547  139.8057  167.4763 C.3     1  UNL1        0.0577
      8 C         143.0469  138.8353  167.1365 C.3     1  UNL1        0.0177
      9 C         143.4270  138.6054  165.7038 C.3     1  UNL1        0.0212
     10 C         142.7149  139.3459  164.6108 C.3     1  UNL1        0.0771
     11 C         141.6227  140.3162  164.9506 C.3     1  UNL1        0.0431
     12 C         141.2426  140.5461  166.3833 C.3     1  UNL1        0.0194
     13 N         141.5747  140.0356  168.9090 N.3     1  UNL1       -0.2741
     14 C         142.2839  139.2920  170.0017 C.3     1  UNL1        0.0896
     15 C         140.7528  142.4840  169.1920 C.3     1  UNL1        0.0173
     16 C         140.4854  141.0091  169.2490 C.3     1  UNL1        0.0576
     17 C         139.1285  140.5077  169.6461 C.3     1  UNL1        0.0173
     18 C         140.9105  141.0567  163.8576 C.3     1  UNL1        0.1524
     19 S         140.7072  142.5390  163.9650 S.O2    1  UNL1       -0.0116
     20 O         139.2531  142.3182  164.2596 O.2     1  UNL1       -0.1730
     21 O         142.1613  142.7597  163.6704 O.2     1  UNL1       -0.1730
     22 C         140.5038  144.0213  164.0724 C.3     1  UNL1        0.1292
     23 C         141.6312  144.9580  163.7536 C.3     1  UNL1        0.0253
     24 C         139.1732  144.5668  164.4986 C.3     1  UNL1        0.0253
     25 N         142.9142  137.3501  159.7263 N.am    1  UNL1       -0.2948
     26 C         142.3321  137.9689  158.4901 C.2     1  UNL1        0.2461
     27 O         142.0224  139.4363  158.4605 O.2     1  UNL1       -0.2701
     28 H         143.1174  136.3870  159.7458 H       1  UNL1        0.1501
     29 C         142.0598  137.1204  157.2836 C.ar    1  UNL1        0.0531
     30 C         142.9432  135.9477  156.9766 C.ar    1  UNL1        0.0045
     31 C         142.6709  135.0990  155.7700 C.ar    1  UNL1       -0.0002
     32 C         141.5151  135.4231  154.8705 C.ar    1  UNL1       -0.0043
     33 C         140.6317  136.5959  155.1775 C.ar    1  UNL1       -0.0227
     34 C         140.9040  137.4445  156.3841 C.ar    1  UNL1        0.0002
     35 C         139.4759  136.9200  154.2780 C.3     1  UNL1        0.0189
     36 C         140.2398  136.3844  153.1035 C.3     1  UNL1        0.0044
     37 C         138.7120  137.4555  155.4525 C.3     1  UNL1        0.0044
     38 C         138.3201  137.2441  153.3785 C.3     1  UNL1        0.0044
@<TRIPOS>BOND
     1    15    16    1
     2    16    17    1
     3    16    13    1
     4    13    14    1
     5     7    13    1
     6     7     8    1
     7     8     9    1
     8     9    10    1
     9    10     1    1
    10     1     2    1
    11     2     3    1
    12     3     4    1
    13     4    25    1
    14    25    26   am
    15    26    27    2
    16    26    29    1
    17    29    30   ar
    18    30    31   ar
    19    31    32   ar
    20    32    33   ar
    21    33    35    1
    22    35    36    1
    23    35    37    1
    24    35    38    1
    25    33    34   ar
    26     4     5    1
    27     5     6    2
    28    10    11    1
    29    11    18    1
    30    18    19    1
    31    19    20    2
    32    19    21    2
    33    19    22    1
    34    22    23    1
    35    22    24    1
    36    11    12    1
    37    12     7    1
    38     5     1   am
    39    34    29   ar
    40    25    28    1
@<TRIPOS>MOLECULE
*****
 38 40 0 0 0
SMALL
GASTEIGER

@<TRIPOS>ATOM
      1 N         138.9641  140.2312  163.8484 N.am    1  UNL1       -0.2797
      2 C         137.6697  140.6273  163.2022 C.3     1  UNL1        0.0956
      3 C         137.6793  140.1146  161.7925 C.3     1  UNL1        0.0505
      4 C         138.9796  139.4016  161.5675 C.3     1  UNL1        0.1507
      5 C         139.7737  139.4737  162.8381 C.2     1  UNL1        0.2435
      6 O         141.1378  138.8906  163.0595 O.2     1  UNL1       -0.2731
      7 C         140.2012  141.1536  168.0755 C.3     1  UNL1        0.0577
      8 C         139.3974  139.9219  167.7811 C.3     1  UNL1        0.0177
      9 C         138.9850  139.6144  166.3721 C.3     1  UNL1        0.0212
     10 C         139.3764  140.5387  165.2574 C.3     1  UNL1        0.0771
     11 C         140.1803  141.7704  165.5518 C.3     1  UNL1        0.0431
     12 C         140.5926  142.0778  166.9609 C.3     1  UNL1        0.0194
     13 N         140.6136  141.4610  169.4846 N.3     1  UNL1       -0.2741
     14 C         140.3614  140.4621  170.5747 C.3     1  UNL1        0.0896
     15 C         142.7649  142.8261  169.9926 C.3     1  UNL1        0.0173
     16 C         141.2781  142.7674  169.8035 C.3     1  UNL1        0.0576
     17 C         140.4557  144.0152  169.9333 C.3     1  UNL1        0.0173
     18 C         140.5718  142.6947  164.4372 C.3     1  UNL1        0.1524
     19 S         141.9538  143.2762  164.3954 S.O2    1  UNL1       -0.0116
     20 O         142.5355  141.8936  164.3973 O.2     1  UNL1       -0.1730
     21 O         141.3721  144.6587  164.3936 O.2     1  UNL1       -0.1730
     22 C         143.3360  143.8576  164.3537 C.3     1  UNL1        0.1292
     23 C         143.6151  145.0685  163.5136 C.3     1  UNL1        0.0253
     24 C         144.4388  143.2282  165.1521 C.3     1  UNL1        0.0253
     25 N         139.4104  138.7338  160.2954 N.am    1  UNL1       -0.2948
     26 C         140.3698  139.4254  159.3728 C.2     1  UNL1        0.2461
     27 O         140.8985  140.7849  159.7224 O.2     1  UNL1       -0.2701
     28 H         139.0634  137.8415  160.0659 H       1  UNL1        0.1501
     29 C         140.8005  138.7575  158.1007 C.ar    1  UNL1        0.0531
     30 C         139.8964  137.7652  157.4313 C.ar    1  UNL1        0.0045
     31 C         140.3271  137.0973  156.1591 C.ar    1  UNL1       -0.0002
     32 C         141.6618  137.4216  155.5563 C.ar    1  UNL1       -0.0043
     33 C         142.5659  138.4139  156.2257 C.ar    1  UNL1       -0.0227
     34 C         142.1352  139.0819  157.4979 C.ar    1  UNL1        0.0002
     35 C         143.9006  138.7383  155.6229 C.3     1  UNL1        0.0189
     36 C         144.1466  137.2783  155.3821 C.3     1  UNL1        0.0044
     37 C         143.6545  140.1982  155.8637 C.3     1  UNL1        0.0044
     38 C         145.2353  139.0626  155.0201 C.3     1  UNL1        0.0044
@<TRIPOS>BOND
     1    15    16    1
     2    16    17    1
     3    16    13    1
     4    13    14    1
     5     7    13    1
     6     7     8    1
     7     8     9    1
     8     9    10    1
     9    10     1    1
    10     1     2    1
    11     2     3    1
    12     3     4    1
    13     4    25    1
    14    25    26   am
    15    26    27    2
    16    26    29    1
    17    29    30   ar
    18    30    31   ar
    19    31    32   ar
    20    32    33   ar
    21    33    35    1
    22    35    36    1
    23    35    37    1
    24    35    38    1
    25    33    34   ar
    26     4     5    1
    27     5     6    2
    28    10    11    1
    29    11    18    1
    30    18    19    1
    31    19    20    2
    32    19    21    2
    33    19    22    1
    34    22    23    1
    35    22    24    1
    36    11    12    1
    37    12     7    1
    38     5     1   am
    39    34    29   ar
    40    25    28    1
@<TRIPOS>MOLECULE
*****
 38 40 0 0 0
SMALL
GASTEIGER

@<TRIPOS>ATOM
      1 N         142.0709  139.7898  158.6462 N.am    1  UNL1       -0.2797
      2 C         141.1925  140.1923  157.4989 C.3     1  UNL1        0.0956
      3 C         140.9631  138.9815  156.6437 C.3     1  UNL1        0.0505
      4 C         141.6998  137.8306  157.2625 C.3     1  UNL1        0.1507
      5 C         142.3844  138.3302  158.5001 C.2     1  UNL1        0.2435
      6 O         143.2335  137.5135  159.4286 O.2     1  UNL1       -0.2731
      7 C         143.5124  142.4873  161.9470 C.3     1  UNL1        0.0577
      8 C         144.2408  142.4508  160.6363 C.3     1  UNL1        0.0177
      9 C         143.7603  141.5516  159.5360 C.3     1  UNL1        0.0212
     10 C         142.5514  140.6890  159.7465 C.3     1  UNL1        0.0771
     11 C         141.8230  140.7255  161.0572 C.3     1  UNL1        0.0431
     12 C         142.3035  141.6247  162.1575 C.3     1  UNL1        0.0194
     13 N         143.9929  143.3865  163.0472 N.3     1  UNL1       -0.2741
     14 C         143.6854  144.8540  163.0047 C.3     1  UNL1        0.0896
     15 C         144.6464  143.4103  165.5617 C.3     1  UNL1        0.0173
     16 C         144.7809  142.8182  164.1900 C.3     1  UNL1        0.0576
     17 C         145.7035  141.6578  163.9613 C.3     1  UNL1        0.0173
     18 C         140.6140  139.8629  161.2677 C.3     1  UNL1        0.1524
     19 S         140.4728  139.0646  162.5298 S.O2    1  UNL1       -0.0116
     20 O         141.5988  138.1751  162.0932 O.2     1  UNL1       -0.1730
     21 O         139.3467  139.9541  162.9664 O.2     1  UNL1       -0.1730
     22 C         140.3316  138.2663  163.7919 C.3     1  UNL1        0.1292
     23 C         141.5446  137.6685  164.4408 C.3     1  UNL1        0.0253
     24 C         138.9774  138.0659  164.4050 C.3     1  UNL1        0.0253
     25 N         141.7440  136.4267  156.7361 N.am    1  UNL1       -0.2948
     26 C         142.9977  135.9033  156.1001 C.2     1  UNL1        0.2461
     27 O         144.2071  136.7839  155.9906 O.2     1  UNL1       -0.2701
     28 H         140.9503  135.8488  156.8080 H       1  UNL1        0.1501
     29 C         143.0419  134.4995  155.5738 C.ar    1  UNL1        0.0531
     30 C         142.5746  134.2065  154.1789 C.ar    1  UNL1        0.0045
     31 C         142.6188  132.8025  153.6525 C.ar    1  UNL1       -0.0002
     32 C         143.1303  131.6916  154.5210 C.ar    1  UNL1       -0.0043
     33 C         143.5976  131.9846  155.9159 C.ar    1  UNL1       -0.0227
     34 C         143.5534  133.3886  156.4423 C.ar    1  UNL1        0.0002
     35 C         144.1090  130.8737  156.7844 C.3     1  UNL1        0.0189
     36 C         143.1623  129.9186  156.1202 C.3     1  UNL1        0.0044
     37 C         145.0558  131.8289  157.4486 C.3     1  UNL1        0.0044
     38 C         144.6205  129.7629  157.6529 C.3     1  UNL1        0.0044
@<TRIPOS>BOND
     1    15    16    1
     2    16    17    1
     3    16    13    1
     4    13    14    1
     5     7    13    1
     6     7     8    1
     7     8     9    1
     8     9    10    1
     9    10     1    1
    10     1     2    1
    11     2     3    1
    12     3     4    1
    13     4    25    1
    14    25    26   am
    15    26    27    2
    16    26    29    1
    17    29    30   ar
    18    30    31   ar
    19    31    32   ar
    20    32    33   ar
    21    33    35    1
    22    35    36    1
    23    35    37    1
    24    35    38    1
    25    33    34   ar
    26     4     5    1
    27     5     6    2
    28    10    11    1
    29    11    18    1
    30    18    19    1
    31    19    20    2
    32    19    21    2
    33    19    22    1
    34    22    23    1
    35    22    24    1
    36    11    12    1
    37    12     7    1
    38     5     1   am
    39    34    29   ar
    40    25    28    1
@<TRIPOS>MOLECULE
*****
 38 40 0 0 0
SMALL
GASTEIGER

@<TRIPOS>ATOM
      1 N         138.9103  139.7330  163.1973 N.am    1  UNL1       -0.2797
      2 C         137.8480  140.4413  162.4099 C.3     1  UNL1        0.0956
      3 C         137.9427  139.9813  160.9853 C.3     1  UNL1        0.0505
      4 C         139.0635  138.9887  160.8922 C.3     1  UNL1        0.1507
      5 C         139.6614  138.8353  162.2593 C.2     1  UNL1        0.2435
      6 O         140.8091  137.9410  162.6243 O.2     1  UNL1       -0.2731
      7 C         139.7041  140.2164  167.6003 C.3     1  UNL1        0.0577
      8 C         138.6460  139.2633  167.1291 C.3     1  UNL1        0.0177
      9 C         138.3814  139.1021  165.6615 C.3     1  UNL1        0.0212
     10 C         139.1749  139.8941  164.6649 C.3     1  UNL1        0.0771
     11 C         140.2330  140.8472  165.1361 C.3     1  UNL1        0.0431
     12 C         140.4976  141.0083  166.6037 C.3     1  UNL1        0.0194
     13 N         139.9687  140.3775  169.0679 N.3     1  UNL1       -0.2741
     14 C         138.8244  140.4108  170.0371 C.3     1  UNL1        0.0896
     15 C         141.9175  141.8505  169.9524 C.3     1  UNL1        0.0173
     16 C         141.3776  140.5053  169.5664 C.3     1  UNL1        0.0576
     17 C         142.2467  139.2879  169.6790 C.3     1  UNL1        0.0173
     18 C         141.0265  141.6392  164.1395 C.3     1  UNL1        0.1524
     19 S         142.4879  141.8861  164.3705 S.O2    1  UNL1       -0.0116
     20 O         142.7746  140.4382  164.1034 O.2     1  UNL1       -0.1730
     21 O         142.2011  143.3339  164.6375 O.2     1  UNL1       -0.1730
     22 C         143.9494  142.1329  164.6014 C.3     1  UNL1        0.1292
     23 C         144.9644  141.1480  164.1018 C.3     1  UNL1        0.0253
     24 C         144.3957  143.3645  165.3320 C.3     1  UNL1        0.0253
     25 N         139.5082  138.2749  159.6502 N.am    1  UNL1       -0.2948
     26 C         140.7496  138.7181  158.9342 C.2     1  UNL1        0.2461
     27 O         141.5462  139.8750  159.4603 O.2     1  UNL1       -0.2701
     28 H         138.9853  137.5156  159.3049 H       1  UNL1        0.1501
     29 C         141.1942  138.0043  157.6922 C.ar    1  UNL1        0.0531
     30 C         142.5859  137.4517  157.6023 C.ar    1  UNL1        0.0045
     31 C         143.0306  136.7378  156.3601 C.ar    1  UNL1       -0.0002
     32 C         142.0837  136.5765  155.2081 C.ar    1  UNL1       -0.0043
     33 C         140.6920  137.1291  155.2980 C.ar    1  UNL1       -0.0227
     34 C         140.2473  137.8430  156.5401 C.ar    1  UNL1        0.0002
     35 C         139.7451  136.9678  154.1459 C.3     1  UNL1        0.0189
     36 C         138.5929  137.3027  155.0460 C.3     1  UNL1        0.0044
     37 C         140.8973  136.6329  153.2458 C.3     1  UNL1        0.0044
     38 C         138.7982  136.8065  152.9938 C.3     1  UNL1        0.0044
@<TRIPOS>BOND
     1    15    16    1
     2    16    17    1
     3    16    13    1
     4    13    14    1
     5     7    13    1
     6     7     8    1
     7     8     9    1
     8     9    10    1
     9    10     1    1
    10     1     2    1
    11     2     3    1
    12     3     4    1
    13     4    25    1
    14    25    26   am
    15    26    27    2
    16    26    29    1
    17    29    30   ar
    18    30    31   ar
    19    31    32   ar
    20    32    33   ar
    21    33    35    1
    22    35    36    1
    23    35    37    1
    24    35    38    1
    25    33    34   ar
    26     4     5    1
    27     5     6    2
    28    10    11    1
    29    11    18    1
    30    18    19    1
    31    19    20    2
    32    19    21    2
    33    19    22    1
    34    22    23    1
    35    22    24    1
    36    11    12    1
    37    12     7    1
    38     5     1   am
    39    34    29   ar
    40    25    28    1
