@<TRIPOS>MOLECULE
*****
 45 50 0 0 0
SMALL
GASTEIGER

@<TRIPOS>ATOM
      1 C         143.3336  140.5471  158.6638 C.ar    1  UNL1        0.0536
      2 C         142.9263  141.3780  159.8443 C.ar    1  UNL1        0.0159
      3 C         143.6455  142.6600  160.1431 C.ar    1  UNL1        0.0787
      4 N         144.7719  143.1112  159.2613 N.ar    1  UNL1       -0.2456
      5 C         145.1792  142.2803  158.0807 C.ar    1  UNL1        0.0814
      6 C         146.3056  142.7315  157.1989 C.ar    1  UNL1        0.0191
      7 C         146.7128  141.9006  156.0183 C.ar    1  UNL1        0.0015
      8 C         145.9937  140.6186  155.7195 C.ar    1  UNL1        0.0001
      9 C         144.8673  140.1675  156.6013 C.ar    1  UNL1        0.0016
     10 C         144.4600  140.9983  157.7819 C.ar    1  UNL1        0.0218
     11 C         143.2382  143.4908  161.3238 C.ar    1  UNL1        0.0173
     12 C         141.9857  144.3141  161.2653 C.ar    1  UNL1        0.0015
     13 C         141.5785  145.1449  162.4459 C.ar    1  UNL1       -0.0000
     14 C         142.4237  145.1524  163.6850 C.ar    1  UNL1        0.0039
     15 C         143.6762  144.3292  163.7435 C.ar    1  UNL1        0.0715
     16 C         144.0835  143.4984  162.5629 C.ar    1  UNL1        0.0053
     17 C         144.5215  144.3367  164.9827 C.3     1  UNL1        0.4186
     18 F         145.3667  144.3442  166.2218 F       1  UNL1       -0.1659
     19 F         144.7946  142.8725  164.8053 F       1  UNL1       -0.1659
     20 F         144.2484  145.8009  165.1601 F       1  UNL1       -0.1659
     21 N         141.7466  139.1585  157.1461 N.am    1  UNL1       -0.2987
     22 C         142.6144  139.2651  158.3650 C.2     1  UNL1        0.2459
     23 O         142.7630  138.0898  159.2850 O.2     1  UNL1       -0.2701
     24 H         141.6490  139.9299  156.5422 H       1  UNL1        0.1500
     25 C         139.5878  137.7157  157.2368 C.3     1  UNL1        0.0262
     26 C         141.0274  137.8765  156.8473 C.3     1  UNL1        0.0944
     27 C         141.7479  136.7552  156.1590 C.ar    1  UNL1       -0.0045
     28 C         143.2470  136.7072  156.1720 C.ar    1  UNL1       -0.0027
     29 C         143.9675  135.5860  155.4838 C.ar    1  UNL1       -0.0003
     30 C         143.1888  134.5128  154.7824 C.ar    1  UNL1       -0.0000
     31 C         141.6897  134.5608  154.7693 C.ar    1  UNL1       -0.0003
     32 C         140.9692  135.6821  155.4576 C.ar    1  UNL1       -0.0027
     33 C         141.7999  140.9268  160.7262 C.3     1  UNL1        0.1008
     34 N         141.9857  140.8769  162.2138 N.3     1  UNL1       -0.2688
     35 C         143.1708  140.1668  162.7982 C.3     1  UNL1        0.0738
     36 C         143.3566  140.1169  164.2857 C.3     1  UNL1        0.0333
     37 C         142.3574  140.7770  165.1890 C.3     1  UNL1        0.0603
     38 C         141.1723  141.4871  164.6046 C.3     1  UNL1        0.0333
     39 C         140.9865  141.5370  163.1170 C.3     1  UNL1        0.0738
     40 N         142.5433  140.7271  166.6766 N.3     1  UNL1       -0.2739
     41 C         142.9054  141.9729  167.4294 C.3     1  UNL1        0.0720
     42 C         143.0912  141.9230  168.9170 C.3     1  UNL1        0.0174
     43 C         142.9150  140.6271  169.6518 C.3     1  UNL1        0.0029
     44 C         142.5529  139.3813  168.8990 C.3     1  UNL1        0.0174
     45 C         142.3670  139.4313  167.4113 C.3     1  UNL1        0.0720
@<TRIPOS>BOND
     1    26    25    1
     2    26    21    1
     3    21    22   am
     4    22    23    2
     5    22     1    1
     6     1     2   ar
     7     2    33    1
     8    33    34    1
     9    34    35    1
    10    35    36    1
    11    36    37    1
    12    37    40    1
    13    40    41    1
    14    41    42    1
    15    42    43    1
    16    43    44    1
    17    44    45    1
    18    37    38    1
    19    38    39    1
    20     2     3   ar
    21     3    11    1
    22    11    12   ar
    23    12    13   ar
    24    13    14   ar
    25    14    15   ar
    26    15    17    1
    27    17    18    1
    28    17    19    1
    29    17    20    1
    30    15    16   ar
    31     3     4   ar
    32     4     5   ar
    33     5     6   ar
    34     6     7   ar
    35     7     8   ar
    36     8     9   ar
    37     9    10   ar
    38    26    27    1
    39    27    28   ar
    40    28    29   ar
    41    29    30   ar
    42    30    31   ar
    43    31    32   ar
    44    10     1   ar
    45    32    27   ar
    46    39    34    1
    47    16    11   ar
    48    10     5   ar
    49    45    40    1
    50    21    24    1
@<TRIPOS>MOLECULE
*****
 45 50 0 0 0
SMALL
GASTEIGER

@<TRIPOS>ATOM
      1 C         140.7801  139.4620  158.5777 C.ar    1  UNL1        0.0536
      2 C         141.5512  139.9779  159.7563 C.ar    1  UNL1        0.0159
      3 C         142.7916  139.2672  160.2104 C.ar    1  UNL1        0.0787
      4 N         143.2610  138.0405  159.4859 N.ar    1  UNL1       -0.2456
      5 C         142.4899  137.5245  158.3072 C.ar    1  UNL1        0.0814
      6 C         142.9592  136.2979  157.5827 C.ar    1  UNL1        0.0191
      7 C         142.1881  135.7819  156.4041 C.ar    1  UNL1        0.0015
      8 C         140.9477  136.4926  155.9500 C.ar    1  UNL1        0.0001
      9 C         140.4783  137.7193  156.6745 C.ar    1  UNL1        0.0016
     10 C         141.2494  138.2352  157.8531 C.ar    1  UNL1        0.0218
     11 C         143.5628  139.7832  161.3891 C.ar    1  UNL1        0.0173
     12 C         144.3815  141.0335  161.2606 C.ar    1  UNL1        0.0015
     13 C         145.1525  141.5494  162.4392 C.ar    1  UNL1       -0.0000
     14 C         145.1049  140.8151  163.7464 C.ar    1  UNL1        0.0039
     15 C         144.2862  139.5649  163.8748 C.ar    1  UNL1        0.0715
     16 C         143.5151  139.0489  162.6962 C.ar    1  UNL1        0.0053
     17 C         144.2385  138.8306  165.1819 C.3     1  UNL1        0.4186
     18 F         144.1909  138.0963  166.4890 F       1  UNL1       -0.1659
     19 F         142.7393  138.8504  165.1384 F       1  UNL1       -0.1659
     20 F         145.7377  138.8107  165.2254 F       1  UNL1       -0.1659
     21 N         139.6033  141.1300  156.9706 N.am    1  UNL1       -0.2987
     22 C         139.5397  140.1727  158.1236 C.2     1  UNL1        0.2459
     23 O         138.2356  139.9261  158.8226 O.2     1  UNL1       -0.2701
     24 H         140.4593  141.2919  156.5118 H       1  UNL1        0.1500
     25 C         138.1829  143.2998  156.8143 C.3     1  UNL1        0.0262
     26 C         138.3629  141.8408  156.5165 C.3     1  UNL1        0.0944
     27 C         137.3024  141.0923  155.7645 C.ar    1  UNL1       -0.0045
     28 C         137.6346  139.7924  155.0938 C.ar    1  UNL1       -0.0027
     29 C         136.5742  139.0440  154.3419 C.ar    1  UNL1       -0.0003
     30 C         135.1816  139.5955  154.2606 C.ar    1  UNL1       -0.0000
     31 C         134.8494  140.8955  154.9313 C.ar    1  UNL1       -0.0003
     32 C         135.9099  141.6439  155.6833 C.ar    1  UNL1       -0.0027
     33 C         141.0819  141.2046  160.4809 C.3     1  UNL1        0.1008
     34 N         140.8361  141.1542  161.9597 N.3     1  UNL1       -0.2688
     35 C         140.0106  140.0472  162.5455 C.3     1  UNL1        0.0738
     36 C         139.7649  139.9968  164.0244 C.3     1  UNL1        0.0333
     37 C         140.3445  141.0534  164.9175 C.3     1  UNL1        0.0603
     38 C         141.1700  142.1604  164.3317 C.3     1  UNL1        0.0333
     39 C         141.4158  142.2108  162.8528 C.3     1  UNL1        0.0738
     40 N         140.0988  141.0030  166.3963 N.3     1  UNL1       -0.2739
     41 C         140.6130  142.1005  167.2800 C.3     1  UNL1        0.0720
     42 C         140.3672  142.0501  168.7588 C.3     1  UNL1        0.0174
     43 C         139.6071  140.9020  169.3541 C.3     1  UNL1        0.0029
     44 C         139.0929  139.8045  168.4704 C.3     1  UNL1        0.0174
     45 C         139.3387  139.8549  166.9915 C.3     1  UNL1        0.0720
@<TRIPOS>BOND
     1    26    25    1
     2    26    21    1
     3    21    22   am
     4    22    23    2
     5    22     1    1
     6     1     2   ar
     7     2    33    1
     8    33    34    1
     9    34    35    1
    10    35    36    1
    11    36    37    1
    12    37    40    1
    13    40    41    1
    14    41    42    1
    15    42    43    1
    16    43    44    1
    17    44    45    1
    18    37    38    1
    19    38    39    1
    20     2     3   ar
    21     3    11    1
    22    11    12   ar
    23    12    13   ar
    24    13    14   ar
    25    14    15   ar
    26    15    17    1
    27    17    18    1
    28    17    19    1
    29    17    20    1
    30    15    16   ar
    31     3     4   ar
    32     4     5   ar
    33     5     6   ar
    34     6     7   ar
    35     7     8   ar
    36     8     9   ar
    37     9    10   ar
    38    26    27    1
    39    27    28   ar
    40    28    29   ar
    41    29    30   ar
    42    30    31   ar
    43    31    32   ar
    44    10     1   ar
    45    32    27   ar
    46    39    34    1
    47    16    11   ar
    48    10     5   ar
    49    45    40    1
    50    21    24    1
@<TRIPOS>MOLECULE
*****
 45 50 0 0 0
SMALL
GASTEIGER

@<TRIPOS>ATOM
      1 C         140.4359  142.5801  161.1651 C.ar    1  UNL1        0.0536
      2 C         140.5084  143.0294  159.7358 C.ar    1  UNL1        0.0159
      3 C         141.3834  144.1874  159.3572 C.ar    1  UNL1        0.0787
      4 N         142.1858  144.8961  160.4078 N.ar    1  UNL1       -0.2456
      5 C         142.1133  144.4468  161.8371 C.ar    1  UNL1        0.0814
      6 C         142.9158  145.1554  162.8877 C.ar    1  UNL1        0.0191
      7 C         142.8432  144.7061  164.3170 C.ar    1  UNL1        0.0015
      8 C         141.9682  143.5481  164.6956 C.ar    1  UNL1        0.0001
      9 C         141.1658  142.8394  163.6450 C.ar    1  UNL1        0.0016
     10 C         141.2383  143.2887  162.2158 C.ar    1  UNL1        0.0218
     11 C         141.4559  144.6368  157.9279 C.ar    1  UNL1        0.0173
     12 C         142.4581  144.0201  156.9977 C.ar    1  UNL1        0.0015
     13 C         142.5306  144.4694  155.5685 C.ar    1  UNL1       -0.0000
     14 C         141.6008  145.5355  155.0694 C.ar    1  UNL1        0.0039
     15 C         140.5986  146.1522  155.9995 C.ar    1  UNL1        0.0715
     16 C         140.5262  145.7028  157.4288 C.ar    1  UNL1        0.0053
     17 C         139.6689  147.2182  155.5004 C.3     1  UNL1        0.4186
     18 F         138.7392  148.2843  155.0013 F       1  UNL1       -0.1659
     19 F         140.1834  147.0142  154.1062 F       1  UNL1       -0.1659
     20 F         139.1544  147.4222  156.8946 F       1  UNL1       -0.1659
     21 N         140.1776  140.1067  161.9175 N.am    1  UNL1       -0.2987
     22 C         139.5609  141.4220  161.5437 C.2     1  UNL1        0.2459
     23 O         138.0692  141.5793  161.5486 O.2     1  UNL1       -0.2701
     24 H         141.1567  140.0035  161.9143 H       1  UNL1        0.1500
     25 C         138.8449  137.9799  161.2465 C.3     1  UNL1        0.0262
     26 C         139.3027  138.9487  162.2961 C.3     1  UNL1        0.0944
     27 C         138.8854  138.7595  163.7245 C.ar    1  UNL1       -0.0045
     28 C         138.8997  137.3894  164.3348 C.ar    1  UNL1       -0.0027
     29 C         138.4825  137.2002  165.7631 C.ar    1  UNL1       -0.0003
     30 C         138.0510  138.3811  166.5812 C.ar    1  UNL1       -0.0000
     31 C         138.0367  139.7513  165.9709 C.ar    1  UNL1       -0.0003
     32 C         138.4539  139.9405  164.5425 C.ar    1  UNL1       -0.0027
     33 C         139.7059  142.3207  158.6851 C.3     1  UNL1        0.1008
     34 N         140.1603  140.9890  158.1657 N.3     1  UNL1       -0.2688
     35 C         139.1553  140.0041  157.6460 C.3     1  UNL1        0.0738
     36 C         139.6096  138.6723  157.1265 C.3     1  UNL1        0.0333
     37 C         141.0690  138.3254  157.1266 C.3     1  UNL1        0.0603
     38 C         142.0740  139.3103  157.6463 C.3     1  UNL1        0.0333
     39 C         141.6196  140.6421  158.1658 C.3     1  UNL1        0.0738
     40 N         141.5233  136.9936  156.6072 N.3     1  UNL1       -0.2739
     41 C         142.7840  136.3738  157.1330 C.3     1  UNL1        0.0720
     42 C         143.2384  135.0421  156.6135 C.3     1  UNL1        0.0174
     43 C         142.4320  134.3300  155.5681 C.3     1  UNL1        0.0029
     44 C         141.1713  134.9498  155.0423 C.3     1  UNL1        0.0174
     45 C         140.7170  136.2816  155.5618 C.3     1  UNL1        0.0720
@<TRIPOS>BOND
     1    26    25    1
     2    26    21    1
     3    21    22   am
     4    22    23    2
     5    22     1    1
     6     1     2   ar
     7     2    33    1
     8    33    34    1
     9    34    35    1
    10    35    36    1
    11    36    37    1
    12    37    40    1
    13    40    41    1
    14    41    42    1
    15    42    43    1
    16    43    44    1
    17    44    45    1
    18    37    38    1
    19    38    39    1
    20     2     3   ar
    21     3    11    1
    22    11    12   ar
    23    12    13   ar
    24    13    14   ar
    25    14    15   ar
    26    15    17    1
    27    17    18    1
    28    17    19    1
    29    17    20    1
    30    15    16   ar
    31     3     4   ar
    32     4     5   ar
    33     5     6   ar
    34     6     7   ar
    35     7     8   ar
    36     8     9   ar
    37     9    10   ar
    38    26    27    1
    39    27    28   ar
    40    28    29   ar
    41    29    30   ar
    42    30    31   ar
    43    31    32   ar
    44    10     1   ar
    45    32    27   ar
    46    39    34    1
    47    16    11   ar
    48    10     5   ar
    49    45    40    1
    50    21    24    1
@<TRIPOS>MOLECULE
*****
 45 50 0 0 0
SMALL
GASTEIGER

@<TRIPOS>ATOM
      1 C         141.8257  142.5202  158.4377 C.ar    1  UNL1        0.0536
      2 C         141.0299  142.1751  159.6614 C.ar    1  UNL1        0.0159
      3 C         139.9549  143.1035  160.1435 C.ar    1  UNL1        0.0787
      4 N         139.6757  144.3771  159.4019 N.ar    1  UNL1       -0.2456
      5 C         140.4715  144.7223  158.1781 C.ar    1  UNL1        0.0814
      6 C         140.1924  145.9959  157.4365 C.ar    1  UNL1        0.0191
      7 C         140.9882  146.3410  156.2128 C.ar    1  UNL1        0.0015
      8 C         142.0632  145.4126  155.7307 C.ar    1  UNL1        0.0001
      9 C         142.3424  144.1391  156.4723 C.ar    1  UNL1        0.0016
     10 C         141.5465  143.7939  157.6960 C.ar    1  UNL1        0.0218
     11 C         139.1591  142.7582  161.3673 C.ar    1  UNL1        0.0173
     12 C         138.1910  141.6130  161.3339 C.ar    1  UNL1        0.0015
     13 C         137.3953  141.2678  162.5577 C.ar    1  UNL1       -0.0000
     14 C         137.5676  142.0679  163.8147 C.ar    1  UNL1        0.0039
     15 C         138.5356  143.2131  163.8480 C.ar    1  UNL1        0.0715
     16 C         139.3314  143.5583  162.6243 C.ar    1  UNL1        0.0053
     17 C         138.7079  144.0132  165.1051 C.3     1  UNL1        0.4186
     18 F         138.8803  144.8133  166.3621 F       1  UNL1       -0.1659
     19 F         137.2481  144.3576  165.0860 F       1  UNL1       -0.1659
     20 F         140.1678  143.6689  165.1242 F       1  UNL1       -0.1659
     21 N         142.7125  140.8243  156.6805 N.am    1  UNL1       -0.2987
     22 C         142.9007  141.5918  157.9555 C.2     1  UNL1        0.2459
     23 O         144.1638  141.4309  158.7483 O.2     1  UNL1       -0.2701
     24 H         141.8835  140.9299  156.1602 H       1  UNL1        0.1500
     25 C         145.0383  140.4513  155.5843 C.3     1  UNL1        0.0262
     26 C         143.7875  139.8959  156.1984 C.3     1  UNL1        0.0944
     27 C         143.6117  138.4120  156.3304 C.ar    1  UNL1       -0.0045
     28 C         142.7837  137.8514  157.4485 C.ar    1  UNL1       -0.0027
     29 C         142.6079  136.3677  157.5806 C.ar    1  UNL1       -0.0003
     30 C         143.2601  135.4444  156.5945 C.ar    1  UNL1       -0.0000
     31 C         144.0881  136.0050  155.4764 C.ar    1  UNL1       -0.0003
     32 C         144.2639  137.4889  155.3444 C.ar    1  UNL1       -0.0027
     33 C         141.3091  140.9014  160.4030 C.3     1  UNL1        0.1008
     34 N         141.5995  140.9384  161.8741 N.3     1  UNL1       -0.2688
     35 C         142.5843  141.9297  162.4195 C.3     1  UNL1        0.0738
     36 C         142.8747  141.9667  163.8907 C.3     1  UNL1        0.0333
     37 C         142.1802  141.0123  164.8165 C.3     1  UNL1        0.0603
     38 C         141.1954  140.0211  164.2711 C.3     1  UNL1        0.0333
     39 C         140.9050  139.9841  162.7999 C.3     1  UNL1        0.0738
     40 N         142.4706  141.0493  166.2876 N.3     1  UNL1       -0.2739
     41 C         142.2323  139.8313  167.1300 C.3     1  UNL1        0.0720
     42 C         142.5227  139.8683  168.6011 C.3     1  UNL1        0.0174
     43 C         143.0514  141.1233  169.2299 C.3     1  UNL1        0.0029
     44 C         143.2897  142.3414  168.3876 C.3     1  UNL1        0.0174
     45 C         142.9993  142.3044  166.9164 C.3     1  UNL1        0.0720
@<TRIPOS>BOND
     1    26    25    1
     2    26    21    1
     3    21    22   am
     4    22    23    2
     5    22     1    1
     6     1     2   ar
     7     2    33    1
     8    33    34    1
     9    34    35    1
    10    35    36    1
    11    36    37    1
    12    37    40    1
    13    40    41    1
    14    41    42    1
    15    42    43    1
    16    43    44    1
    17    44    45    1
    18    37    38    1
    19    38    39    1
    20     2     3   ar
    21     3    11    1
    22    11    12   ar
    23    12    13   ar
    24    13    14   ar
    25    14    15   ar
    26    15    17    1
    27    17    18    1
    28    17    19    1
    29    17    20    1
    30    15    16   ar
    31     3     4   ar
    32     4     5   ar
    33     5     6   ar
    34     6     7   ar
    35     7     8   ar
    36     8     9   ar
    37     9    10   ar
    38    26    27    1
    39    27    28   ar
    40    28    29   ar
    41    29    30   ar
    42    30    31   ar
    43    31    32   ar
    44    10     1   ar
    45    32    27   ar
    46    39    34    1
    47    16    11   ar
    48    10     5   ar
    49    45    40    1
    50    21    24    1
@<TRIPOS>MOLECULE
*****
 45 50 0 0 0
SMALL
GASTEIGER

@<TRIPOS>ATOM
      1 C         143.3208  139.9467  157.3390 C.ar    1  UNL1        0.0536
      2 C         142.8217  138.5380  157.2110 C.ar    1  UNL1        0.0159
      3 C         143.4152  137.6227  156.1815 C.ar    1  UNL1        0.0787
      4 N         144.5078  138.1160  155.2800 N.ar    1  UNL1       -0.2456
      5 C         145.0070  139.5248  155.4079 C.ar    1  UNL1        0.0814
      6 C         146.0996  140.0181  154.5064 C.ar    1  UNL1        0.0191
      7 C         146.5987  141.4268  154.6345 C.ar    1  UNL1        0.0015
      8 C         146.0052  142.3422  155.6640 C.ar    1  UNL1        0.0001
      9 C         144.9125  141.8488  156.5655 C.ar    1  UNL1        0.0016
     10 C         144.4135  140.4401  156.4375 C.ar    1  UNL1        0.0218
     11 C         142.9160  136.2139  156.0535 C.ar    1  UNL1        0.0173
     12 C         141.7252  135.9155  155.1917 C.ar    1  UNL1        0.0015
     13 C         141.2261  134.5068  155.0637 C.ar    1  UNL1       -0.0000
     14 C         141.9179  133.3965  155.7976 C.ar    1  UNL1        0.0039
     15 C         143.1087  133.6948  156.6594 C.ar    1  UNL1        0.0715
     16 C         143.6078  135.1035  156.7873 C.ar    1  UNL1        0.0053
     17 C         143.8005  132.5845  157.3932 C.3     1  UNL1        0.4186
     18 F         144.4923  131.4741  158.1271 F       1  UNL1       -0.1659
     19 F         142.7292  131.6292  156.9578 F       1  UNL1       -0.1659
     20 F         144.8719  133.5398  157.8287 F       1  UNL1       -0.1659
     21 N         143.4430  141.0960  159.6658 N.am    1  UNL1       -0.2987
     22 C         142.7273  140.8620  158.3685 C.2     1  UNL1        0.2459
     23 O         141.4180  141.5433  158.1008 O.2     1  UNL1       -0.2701
     24 H         144.3023  140.6489  159.8416 H       1  UNL1        0.1500
     25 C         141.6804  142.8816  160.3405 C.3     1  UNL1        0.0262
     26 C         142.8495  142.0114  160.6953 C.3     1  UNL1        0.0944
     27 C         143.4252  142.0565  162.0798 C.ar    1  UNL1       -0.0045
     28 C         142.5579  142.4451  163.2403 C.ar    1  UNL1       -0.0027
     29 C         143.1334  142.4903  164.6247 C.ar    1  UNL1       -0.0003
     30 C         144.5764  142.1468  164.8487 C.ar    1  UNL1       -0.0000
     31 C         145.4436  141.7582  163.6882 C.ar    1  UNL1       -0.0003
     32 C         144.8680  141.7131  162.3037 C.ar    1  UNL1       -0.0027
     33 C         141.7290  138.0446  158.1125 C.3     1  UNL1        0.1008
     34 N         141.8215  138.2652  159.5933 N.3     1  UNL1       -0.2688
     35 C         143.0505  137.8386  160.3399 C.3     1  UNL1        0.0738
     36 C         143.1430  138.0593  161.8206 C.3     1  UNL1        0.0333
     37 C         142.0063  138.7066  162.5549 C.3     1  UNL1        0.0603
     38 C         140.7773  139.1333  161.8083 C.3     1  UNL1        0.0333
     39 C         140.6849  138.9126  160.3274 C.3     1  UNL1        0.0738
     40 N         142.0988  138.9273  164.0356 N.3     1  UNL1       -0.2739
     41 C         140.9075  139.4323  164.7945 C.3     1  UNL1        0.0720
     42 C         141.0000  139.6529  166.2753 C.3     1  UNL1        0.0174
     43 C         142.2838  139.3687  166.9972 C.3     1  UNL1        0.0029
     44 C         143.4750  138.8638  166.2384 C.3     1  UNL1        0.0174
     45 C         143.3825  138.6431  164.7575 C.3     1  UNL1        0.0720
@<TRIPOS>BOND
     1    26    25    1
     2    26    21    1
     3    21    22   am
     4    22    23    2
     5    22     1    1
     6     1     2   ar
     7     2    33    1
     8    33    34    1
     9    34    35    1
    10    35    36    1
    11    36    37    1
    12    37    40    1
    13    40    41    1
    14    41    42    1
    15    42    43    1
    16    43    44    1
    17    44    45    1
    18    37    38    1
    19    38    39    1
    20     2     3   ar
    21     3    11    1
    22    11    12   ar
    23    12    13   ar
    24    13    14   ar
    25    14    15   ar
    26    15    17    1
    27    17    18    1
    28    17    19    1
    29    17    20    1
    30    15    16   ar
    31     3     4   ar
    32     4     5   ar
    33     5     6   ar
    34     6     7   ar
    35     7     8   ar
    36     8     9   ar
    37     9    10   ar
    38    26    27    1
    39    27    28   ar
    40    28    29   ar
    41    29    30   ar
    42    30    31   ar
    43    31    32   ar
    44    10     1   ar
    45    32    27   ar
    46    39    34    1
    47    16    11   ar
    48    10     5   ar
    49    45    40    1
    50    21    24    1
@<TRIPOS>MOLECULE
*****
 45 50 0 0 0
SMALL
GASTEIGER

@<TRIPOS>ATOM
      1 C         140.0892  142.6362  156.9477 C.ar    1  UNL1        0.0536
      2 C         139.0323  141.6049  156.6847 C.ar    1  UNL1        0.0159
      3 C         137.8051  141.9709  155.9038 C.ar    1  UNL1        0.0787
      4 N         137.6347  143.3683  155.3859 N.ar    1  UNL1       -0.2456
      5 C         138.6916  144.3998  155.6489 C.ar    1  UNL1        0.0814
      6 C         138.5212  145.7971  155.1311 C.ar    1  UNL1        0.0191
      7 C         139.5781  146.8285  155.3941 C.ar    1  UNL1        0.0015
      8 C         140.8054  146.4624  156.1750 C.ar    1  UNL1        0.0001
      9 C         140.9758  145.0651  156.6928 C.ar    1  UNL1        0.0016
     10 C         139.9189  144.0337  156.4298 C.ar    1  UNL1        0.0218
     11 C         136.7481  140.9395  155.6408 C.ar    1  UNL1        0.0173
     12 C         136.9950  139.8514  154.6382 C.ar    1  UNL1        0.0015
     13 C         135.9381  138.8201  154.3753 C.ar    1  UNL1       -0.0000
     14 C         134.6343  138.8768  155.1148 C.ar    1  UNL1        0.0039
     15 C         134.3875  139.9648  156.1174 C.ar    1  UNL1        0.0715
     16 C         135.4444  140.9962  156.3804 C.ar    1  UNL1        0.0053
     17 C         133.0837  140.0215  156.8570 C.3     1  UNL1        0.4186
     18 F         131.7799  140.0782  157.5966 F       1  UNL1       -0.1659
     19 F         132.7516  141.3142  156.1725 F       1  UNL1       -0.1659
     20 F         133.4158  138.7288  157.5415 F       1  UNL1       -0.1659
     21 N         141.3177  142.3907  159.2238 N.am    1  UNL1       -0.2987
     22 C         141.3165  142.2702  157.7286 C.2     1  UNL1        0.2459
     23 O         142.5425  141.7837  157.0144 O.2     1  UNL1       -0.2701
     24 H         140.5130  142.7100  159.6926 H       1  UNL1        0.1500
     25 C         143.6747  143.0035  160.1287 C.3     1  UNL1        0.0262
     26 C         142.5450  142.0246  160.0047 C.3     1  UNL1        0.0944
     27 C         142.6426  140.6796  160.6616 C.ar    1  UNL1       -0.0045
     28 C         143.0847  139.4869  159.8665 C.ar    1  UNL1       -0.0027
     29 C         143.1822  138.1420  160.5234 C.ar    1  UNL1       -0.0003
     30 C         142.8376  137.9896  161.9753 C.ar    1  UNL1       -0.0000
     31 C         142.3955  139.1822  162.7704 C.ar    1  UNL1       -0.0003
     32 C         142.2980  140.5273  162.1135 C.ar    1  UNL1       -0.0027
     33 C         139.2027  140.2074  157.2026 C.3     1  UNL1        0.1008
     34 N         139.0683  139.9300  158.6705 N.3     1  UNL1       -0.2688
     35 C         138.3560  140.9085  159.5566 C.3     1  UNL1        0.0738
     36 C         138.2216  140.6311  161.0246 C.3     1  UNL1        0.0333
     37 C         138.7995  139.3751  161.6065 C.3     1  UNL1        0.0603
     38 C         139.5119  138.3966  160.7204 C.3     1  UNL1        0.0333
     39 C         139.6462  138.6741  159.2524 C.3     1  UNL1        0.0738
     40 N         138.6652  139.0977  163.0744 N.3     1  UNL1       -0.2739
     41 C         138.9604  137.7275  163.6089 C.3     1  UNL1        0.0720
     42 C         138.8260  137.4501  165.0769 C.3     1  UNL1        0.0174
     43 C         138.3964  138.5428  166.0104 C.3     1  UNL1        0.0029
     44 C         138.1012  139.9129  165.4760 C.3     1  UNL1        0.0174
     45 C         138.2356  140.1903  164.0079 C.3     1  UNL1        0.0720
@<TRIPOS>BOND
     1    26    25    1
     2    26    21    1
     3    21    22   am
     4    22    23    2
     5    22     1    1
     6     1     2   ar
     7     2    33    1
     8    33    34    1
     9    34    35    1
    10    35    36    1
    11    36    37    1
    12    37    40    1
    13    40    41    1
    14    41    42    1
    15    42    43    1
    16    43    44    1
    17    44    45    1
    18    37    38    1
    19    38    39    1
    20     2     3   ar
    21     3    11    1
    22    11    12   ar
    23    12    13   ar
    24    13    14   ar
    25    14    15   ar
    26    15    17    1
    27    17    18    1
    28    17    19    1
    29    17    20    1
    30    15    16   ar
    31     3     4   ar
    32     4     5   ar
    33     5     6   ar
    34     6     7   ar
    35     7     8   ar
    36     8     9   ar
    37     9    10   ar
    38    26    27    1
    39    27    28   ar
    40    28    29   ar
    41    29    30   ar
    42    30    31   ar
    43    31    32   ar
    44    10     1   ar
    45    32    27   ar
    46    39    34    1
    47    16    11   ar
    48    10     5   ar
    49    45    40    1
    50    21    24    1
@<TRIPOS>MOLECULE
*****
 45 50 0 0 0
SMALL
GASTEIGER

@<TRIPOS>ATOM
      1 C         141.9918  143.8602  157.7390 C.ar    1  UNL1        0.0536
      2 C         141.8506  143.8395  159.2322 C.ar    1  UNL1        0.0159
      3 C         140.9671  144.8404  159.9159 C.ar    1  UNL1        0.0787
      4 N         140.2248  145.8620  159.1065 N.ar    1  UNL1       -0.2456
      5 C         140.3660  145.8828  157.6133 C.ar    1  UNL1        0.0814
      6 C         139.6237  146.9044  156.8038 C.ar    1  UNL1        0.0191
      7 C         139.7649  146.9251  155.3107 C.ar    1  UNL1        0.0015
      8 C         140.6484  145.9242  154.6269 C.ar    1  UNL1        0.0001
      9 C         141.3907  144.9025  155.4364 C.ar    1  UNL1        0.0016
     10 C         141.2495  144.8818  156.9295 C.ar    1  UNL1        0.0218
     11 C         140.8259  144.8197  161.4092 C.ar    1  UNL1        0.0173
     12 C         141.9328  145.3448  162.2745 C.ar    1  UNL1        0.0015
     13 C         141.7915  145.3241  163.7677 C.ar    1  UNL1       -0.0000
     14 C         140.5434  144.7782  164.3955 C.ar    1  UNL1        0.0039
     15 C         139.4365  144.2530  163.5301 C.ar    1  UNL1        0.0715
     16 C         139.5777  144.2738  162.0370 C.ar    1  UNL1        0.0053
     17 C         138.1883  143.7071  164.1579 C.3     1  UNL1        0.4186
     18 F         136.9402  143.1612  164.7857 F       1  UNL1       -0.1659
     19 F         138.3575  144.6487  165.3132 F       1  UNL1       -0.1659
     20 F         138.0191  142.7654  163.0026 F       1  UNL1       -0.1659
     21 N         144.3630  143.0514  157.0509 N.am    1  UNL1       -0.2987
     22 C         142.8753  142.8592  157.0553 C.2     1  UNL1        0.2459
     23 O         142.2712  141.6661  156.3759 O.2     1  UNL1       -0.2701
     24 H         144.7595  143.8345  157.4968 H       1  UNL1        0.1500
     25 C         145.1775  140.6024  156.7524 C.3     1  UNL1        0.0262
     26 C         145.2465  142.0505  156.3672 C.3     1  UNL1        0.0944
     27 C         146.1991  142.4976  155.2982 C.ar    1  UNL1       -0.0045
     28 C         147.6265  142.0371  155.3251 C.ar    1  UNL1       -0.0027
     29 C         148.5790  142.4842  154.2562 C.ar    1  UNL1       -0.0003
     30 C         148.1043  143.3918  153.1603 C.ar    1  UNL1       -0.0000
     31 C         146.6770  143.8523  153.1334 C.ar    1  UNL1       -0.0003
     32 C         145.7244  143.4052  154.2024 C.ar    1  UNL1       -0.0027
     33 C         142.5929  142.8178  160.0417 C.3     1  UNL1        0.1008
     34 N         141.8606  141.9844  161.0512 N.3     1  UNL1       -0.2688
     35 C         142.3704  141.8915  162.4588 C.3     1  UNL1        0.0738
     36 C         141.6381  141.0581  163.4683 C.3     1  UNL1        0.0333
     37 C         140.3958  140.3175  163.0701 C.3     1  UNL1        0.0603
     38 C         139.8860  140.4104  161.6625 C.3     1  UNL1        0.0333
     39 C         140.6184  141.2439  160.6530 C.3     1  UNL1        0.0738
     40 N         139.6635  139.4841  164.0796 N.3     1  UNL1       -0.2739
     41 C         138.8607  140.1474  165.1592 C.3     1  UNL1        0.0720
     42 C         138.1284  139.3140  166.1687 C.3     1  UNL1        0.0174
     43 C         138.1988  137.8172  166.0986 C.3     1  UNL1        0.0029
     44 C         139.0016  137.1539  165.0189 C.3     1  UNL1        0.0174
     45 C         139.7340  137.9874  164.0094 C.3     1  UNL1        0.0720
@<TRIPOS>BOND
     1    26    25    1
     2    26    21    1
     3    21    22   am
     4    22    23    2
     5    22     1    1
     6     1     2   ar
     7     2    33    1
     8    33    34    1
     9    34    35    1
    10    35    36    1
    11    36    37    1
    12    37    40    1
    13    40    41    1
    14    41    42    1
    15    42    43    1
    16    43    44    1
    17    44    45    1
    18    37    38    1
    19    38    39    1
    20     2     3   ar
    21     3    11    1
    22    11    12   ar
    23    12    13   ar
    24    13    14   ar
    25    14    15   ar
    26    15    17    1
    27    17    18    1
    28    17    19    1
    29    17    20    1
    30    15    16   ar
    31     3     4   ar
    32     4     5   ar
    33     5     6   ar
    34     6     7   ar
    35     7     8   ar
    36     8     9   ar
    37     9    10   ar
    38    26    27    1
    39    27    28   ar
    40    28    29   ar
    41    29    30   ar
    42    30    31   ar
    43    31    32   ar
    44    10     1   ar
    45    32    27   ar
    46    39    34    1
    47    16    11   ar
    48    10     5   ar
    49    45    40    1
    50    21    24    1
@<TRIPOS>MOLECULE
*****
 45 50 0 0 0
SMALL
GASTEIGER

@<TRIPOS>ATOM
      1 C         142.2838  141.2233  161.3575 C.ar    1  UNL1        0.0536
      2 C         142.7692  141.2875  159.9397 C.ar    1  UNL1        0.0159
      3 C         143.5781  142.4627  159.4764 C.ar    1  UNL1        0.0787
      4 N         143.9016  143.5737  160.4308 N.ar    1  UNL1       -0.2456
      5 C         143.4161  143.5095  161.8487 C.ar    1  UNL1        0.0814
      6 C         143.7396  144.6205  162.8032 C.ar    1  UNL1        0.0191
      7 C         143.2541  144.5563  164.2210 C.ar    1  UNL1        0.0015
      8 C         142.4452  143.3811  164.6843 C.ar    1  UNL1        0.0001
      9 C         142.1218  142.2701  163.7298 C.ar    1  UNL1        0.0016
     10 C         142.6072  142.3343  162.3120 C.ar    1  UNL1        0.0218
     11 C         144.0635  142.5269  158.0585 C.ar    1  UNL1        0.0173
     12 C         143.1159  142.9006  156.9575 C.ar    1  UNL1        0.0015
     13 C         143.6013  142.9648  155.5397 C.ar    1  UNL1       -0.0000
     14 C         145.0345  142.6552  155.2229 C.ar    1  UNL1        0.0039
     15 C         145.9821  142.2814  156.3239 C.ar    1  UNL1        0.0715
     16 C         145.4966  142.2173  157.7417 C.ar    1  UNL1        0.0053
     17 C         147.4152  141.9718  156.0071 C.3     1  UNL1        0.4186
     18 F         148.8483  141.6622  155.6903 F       1  UNL1       -0.1659
     19 F         147.8452  142.6861  157.2541 F       1  UNL1       -0.1659
     20 F         146.9853  141.2576  154.7601 F       1  UNL1       -0.1659
     21 N         139.9771  140.1285  161.8378 N.am    1  UNL1       -0.2987
     22 C         141.4749  140.0482  161.8208 C.2     1  UNL1        0.2459
     23 O         142.1637  138.7927  162.2670 O.2     1  UNL1       -0.2701
     24 H         139.5250  140.9526  161.5449 H       1  UNL1        0.1500
     25 C         138.7188  137.9165  161.3148 C.3     1  UNL1        0.0262
     26 C         139.1682  138.9534  162.3011 C.3     1  UNL1        0.0944
     27 C         138.8087  138.8151  163.7509 C.ar    1  UNL1       -0.0045
     28 C         138.8297  137.4645  164.4032 C.ar    1  UNL1       -0.0027
     29 C         138.4702  137.3262  165.8529 C.ar    1  UNL1       -0.0003
     30 C         138.0898  138.5384  166.6503 C.ar    1  UNL1       -0.0000
     31 C         138.0688  139.8890  165.9980 C.ar    1  UNL1       -0.0003
     32 C         138.4283  140.0273  164.5482 C.ar    1  UNL1       -0.0027
     33 C         142.4457  140.1765  158.9851 C.3     1  UNL1        0.1008
     34 N         141.1634  140.2053  158.2076 N.3     1  UNL1       -0.2688
     35 C         140.0685  141.1520  158.6014 C.3     1  UNL1        0.0738
     36 C         138.7862  141.1808  157.8238 C.3     1  UNL1        0.0333
     37 C         138.5985  140.2628  156.6524 C.3     1  UNL1        0.0603
     38 C         139.6934  139.3161  156.2586 C.3     1  UNL1        0.0333
     39 C         140.9758  139.2874  157.0362 C.3     1  UNL1        0.0738
     40 N         137.3162  140.2916  155.8749 N.3     1  UNL1       -0.2739
     41 C         137.0981  139.3215  154.7518 C.3     1  UNL1        0.0720
     42 C         135.8157  139.3503  153.9742 C.3     1  UNL1        0.0174
     43 C         134.7513  140.3492  154.3198 C.3     1  UNL1        0.0029
     44 C         134.9694  141.3193  155.4428 C.3     1  UNL1        0.0174
     45 C         136.2519  141.2905  156.2204 C.3     1  UNL1        0.0720
@<TRIPOS>BOND
     1    26    25    1
     2    26    21    1
     3    21    22   am
     4    22    23    2
     5    22     1    1
     6     1     2   ar
     7     2    33    1
     8    33    34    1
     9    34    35    1
    10    35    36    1
    11    36    37    1
    12    37    40    1
    13    40    41    1
    14    41    42    1
    15    42    43    1
    16    43    44    1
    17    44    45    1
    18    37    38    1
    19    38    39    1
    20     2     3   ar
    21     3    11    1
    22    11    12   ar
    23    12    13   ar
    24    13    14   ar
    25    14    15   ar
    26    15    17    1
    27    17    18    1
    28    17    19    1
    29    17    20    1
    30    15    16   ar
    31     3     4   ar
    32     4     5   ar
    33     5     6   ar
    34     6     7   ar
    35     7     8   ar
    36     8     9   ar
    37     9    10   ar
    38    26    27    1
    39    27    28   ar
    40    28    29   ar
    41    29    30   ar
    42    30    31   ar
    43    31    32   ar
    44    10     1   ar
    45    32    27   ar
    46    39    34    1
    47    16    11   ar
    48    10     5   ar
    49    45    40    1
    50    21    24    1
@<TRIPOS>MOLECULE
*****
 45 50 0 0 0
SMALL
GASTEIGER

@<TRIPOS>ATOM
      1 C         142.5897  140.7997  157.1704 C.ar    1  UNL1        0.0536
      2 C         141.9546  141.6208  158.2532 C.ar    1  UNL1        0.0159
      3 C         142.7232  142.7364  158.8971 C.ar    1  UNL1        0.0787
      4 N         144.1270  143.0310  158.4582 N.ar    1  UNL1       -0.2456
      5 C         144.7622  142.2099  157.3753 C.ar    1  UNL1        0.0814
      6 C         146.1659  142.5045  156.9364 C.ar    1  UNL1        0.0191
      7 C         146.8010  141.6835  155.8536 C.ar    1  UNL1        0.0015
      8 C         146.0323  140.5679  155.2097 C.ar    1  UNL1        0.0001
      9 C         144.6286  140.2733  155.6486 C.ar    1  UNL1        0.0016
     10 C         143.9935  141.0943  156.7314 C.ar    1  UNL1        0.0218
     11 C         142.0881  143.5574  159.9800 C.ar    1  UNL1        0.0173
     12 C         141.1676  144.6866  159.6228 C.ar    1  UNL1        0.0015
     13 C         140.5325  145.5076  160.7057 C.ar    1  UNL1       -0.0000
     14 C         140.8178  145.1994  162.1456 C.ar    1  UNL1        0.0039
     15 C         141.7383  144.0702  162.5028 C.ar    1  UNL1        0.0715
     16 C         142.3734  143.2492  161.4200 C.ar    1  UNL1        0.0053
     17 C         142.0237  143.7620  163.9428 C.3     1  UNL1        0.4186
     18 F         142.3090  143.4538  165.3828 F       1  UNL1       -0.1659
     19 F         142.4674  142.3814  163.5594 F       1  UNL1       -0.1659
     20 F         141.5800  145.1426  164.3262 F       1  UNL1       -0.1659
     21 N         141.8220  138.3177  157.1456 N.am    1  UNL1       -0.2987
     22 C         141.8211  139.6841  156.5266 C.2     1  UNL1        0.2459
     23 O         141.0515  139.9348  155.2637 O.2     1  UNL1       -0.2701
     24 H         142.3272  138.1532  157.9745 H       1  UNL1        0.1500
     25 C         139.5824  137.3526  156.2498 C.3     1  UNL1        0.0262
     26 C         141.0534  137.2021  156.5017 C.3     1  UNL1        0.0944
     27 C         141.7559  135.9360  156.1098 C.ar    1  UNL1       -0.0045
     28 C         143.0230  135.5351  156.8052 C.ar    1  UNL1       -0.0027
     29 C         143.7254  134.2691  156.4133 C.ar    1  UNL1       -0.0003
     30 C         143.1607  133.4038  155.3259 C.ar    1  UNL1       -0.0000
     31 C         141.8936  133.8046  154.6304 C.ar    1  UNL1       -0.0003
     32 C         141.1911  135.0707  155.0224 C.ar    1  UNL1       -0.0027
     33 C         140.5508  141.3262  158.6922 C.3     1  UNL1        0.1008
     34 N         140.2636  141.0226  160.1328 N.3     1  UNL1       -0.2688
     35 C         139.1461  141.7304  160.8401 C.3     1  UNL1        0.0738
     36 C         138.8589  141.4269  162.2807 C.3     1  UNL1        0.0333
     37 C         139.6891  140.4154  163.0140 C.3     1  UNL1        0.0603
     38 C         140.8066  139.7076  162.3067 C.3     1  UNL1        0.0333
     39 C         141.0938  140.0112  160.8661 C.3     1  UNL1        0.0738
     40 N         139.4019  140.1119  164.4546 N.3     1  UNL1       -0.2739
     41 C         138.4765  138.9874  164.8141 C.3     1  UNL1        0.0720
     42 C         138.1893  138.6839  166.2546 C.3     1  UNL1        0.0174
     43 C         138.8275  139.5048  167.3358 C.3     1  UNL1        0.0029
     44 C         139.7529  140.6292  166.9764 C.3     1  UNL1        0.0174
     45 C         140.0401  140.9328  165.5357 C.3     1  UNL1        0.0720
@<TRIPOS>BOND
     1    26    25    1
     2    26    21    1
     3    21    22   am
     4    22    23    2
     5    22     1    1
     6     1     2   ar
     7     2    33    1
     8    33    34    1
     9    34    35    1
    10    35    36    1
    11    36    37    1
    12    37    40    1
    13    40    41    1
    14    41    42    1
    15    42    43    1
    16    43    44    1
    17    44    45    1
    18    37    38    1
    19    38    39    1
    20     2     3   ar
    21     3    11    1
    22    11    12   ar
    23    12    13   ar
    24    13    14   ar
    25    14    15   ar
    26    15    17    1
    27    17    18    1
    28    17    19    1
    29    17    20    1
    30    15    16   ar
    31     3     4   ar
    32     4     5   ar
    33     5     6   ar
    34     6     7   ar
    35     7     8   ar
    36     8     9   ar
    37     9    10   ar
    38    26    27    1
    39    27    28   ar
    40    28    29   ar
    41    29    30   ar
    42    30    31   ar
    43    31    32   ar
    44    10     1   ar
    45    32    27   ar
    46    39    34    1
    47    16    11   ar
    48    10     5   ar
    49    45    40    1
    50    21    24    1
