@<TRIPOS>MOLECULE
*****
 30 33 0 0 0
SMALL
GASTEIGER

@<TRIPOS>ATOM
      1 C         143.5372  142.6022  166.2602 C.ar    1  UNL1        0.1488
      2 C         144.4116  143.5693  165.5183 C.ar    1  UNL1        0.0390
      3 C         144.4003  143.5922  164.0186 C.ar    1  UNL1        0.0417
      4 C         143.5147  142.6482  163.2607 C.ar    1  UNL1        0.1640
      5 N         143.2924  142.4413  161.7916 N.ar    1  UNL1       -0.2234
      6 C         142.2807  141.3464  161.6257 C.ar    1  UNL1        0.1197
      7 C         141.8777  140.8766  162.9920 C.ar    1  UNL1        0.1036
      8 N         142.6403  141.6812  164.0025 N.ar    1  UNL1       -0.2096
      9 N         142.6516  141.6582  165.5022 N.ar    1  UNL1       -0.1489
     10 C         140.8861  139.7926  163.2948 C.ar    1  UNL1        0.0192
     11 C         140.6760  138.6741  162.3176 C.ar    1  UNL1        0.0015
     12 C         139.6844  137.5901  162.6204 C.ar    1  UNL1       -0.0000
     13 C         138.9030  137.6245  163.9002 C.ar    1  UNL1        0.0039
     14 C         139.1131  138.7430  164.8774 C.ar    1  UNL1        0.0715
     15 C         140.1047  139.8270  164.5746 C.ar    1  UNL1        0.0054
     16 C         138.3316  138.7775  166.1573 C.3     1  UNL1        0.4186
     17 F         137.5502  138.8120  167.4372 F       1  UNL1       -0.1659
     18 F         138.5600  140.2566  166.2569 F       1  UNL1       -0.1659
     19 F         138.1032  137.2983  166.0577 F       1  UNL1       -0.1659
     20 N         143.5485  142.5792  167.7600 N.pl3   1  UNL1       -0.3184
     21 H         144.2594  143.0479  168.2542 H       1  UNL1        0.1482
     22 C         138.8393  140.3416  170.1386 C.3     1  UNL1        0.0293
     23 C         140.3326  140.3682  170.0005 C.3     1  UNL1        0.0885
     24 O         140.1837  139.2658  171.0066 O.3     1  UNL1       -0.3867
     25 C         141.7743  140.0120  170.2118 C.3     1  UNL1        0.0286
     26 C         142.8463  140.7490  169.4650 C.3     1  UNL1        0.0219
     27 C         142.4766  141.8422  168.5068 C.3     1  UNL1        0.0706
     28 C         141.0348  142.1985  168.2955 C.3     1  UNL1        0.0219
     29 C         139.9629  141.4615  169.0423 C.3     1  UNL1        0.0286
     30 H         141.0602  138.9261  171.2461 H       1  UNL1        0.2102
@<TRIPOS>BOND
     1    23    22    1
     2    23    24    1
     3    23    25    1
     4    25    26    1
     5    26    27    1
     6    27    20    1
     7    20     1    1
     8     1     2   ar
     9     2     3   ar
    10     3     4   ar
    11     4     5   ar
    12     5     6   ar
    13     6     7   ar
    14     7    10    1
    15    10    11   ar
    16    11    12   ar
    17    12    13   ar
    18    13    14   ar
    19    14    16    1
    20    16    17    1
    21    16    18    1
    22    16    19    1
    23    14    15   ar
    24     7     8   ar
    25     8     9   ar
    26    27    28    1
    27    28    29    1
    28    29    23    1
    29     9     1   ar
    30     8     4   ar
    31    15    10   ar
    32    24    30    1
    33    20    21    1
@<TRIPOS>MOLECULE
*****
 30 33 0 0 0
SMALL
GASTEIGER

@<TRIPOS>ATOM
      1 C         139.2306  139.2001  166.5388 C.ar    1  UNL1        0.1488
      2 C         138.4801  137.9919  166.0627 C.ar    1  UNL1        0.0390
      3 C         138.9678  137.2291  164.8668 C.ar    1  UNL1        0.0417
      4 C         140.2062  137.6746  164.1470 C.ar    1  UNL1        0.1640
      5 N         140.9220  137.1269  162.9479 N.ar    1  UNL1       -0.2234
      6 C         142.1150  137.9967  162.6831 C.ar    1  UNL1        0.1197
      7 C         142.1364  139.0820  163.7184 C.ar    1  UNL1        0.1036
      8 N         140.9567  138.8828  164.6232 N.ar    1  UNL1       -0.2096
      9 N         140.4689  139.6456  165.8191 N.ar    1  UNL1       -0.1489
     10 C         143.1582  140.1745  163.8295 C.ar    1  UNL1        0.0192
     11 C         144.6180  139.8336  163.8824 C.ar    1  UNL1        0.0015
     12 C         145.6398  140.9261  163.9934 C.ar    1  UNL1       -0.0000
     13 C         145.2018  142.3595  164.0516 C.ar    1  UNL1        0.0039
     14 C         143.7420  142.7004  163.9987 C.ar    1  UNL1        0.0715
     15 C         142.7203  141.6079  163.8876 C.ar    1  UNL1        0.0054
     16 C         143.3040  144.1340  164.0569 C.3     1  UNL1        0.4186
     17 F         142.8661  145.5674  164.1150 F       1  UNL1       -0.1659
     18 F         144.4055  144.5089  163.1103 F       1  UNL1       -0.1659
     19 F         142.2025  143.7590  165.0035 F       1  UNL1       -0.1659
     20 N         138.7429  139.9629  167.7348 N.pl3   1  UNL1       -0.3184
     21 H         137.7791  140.0075  167.9307 H       1  UNL1        0.1482
     22 C         142.6959  143.1551  170.3853 C.3     1  UNL1        0.0293
     23 C         141.6849  142.0478  170.4270 C.3     1  UNL1        0.0885
     24 O         142.1764  142.0051  171.8435 O.3     1  UNL1       -0.3867
     25 C         140.8446  140.9257  170.9606 C.3     1  UNL1        0.0286
     26 C         139.8639  140.2307  170.0632 C.3     1  UNL1        0.0219
     27 C         139.7235  140.6579  168.6322 C.3     1  UNL1        0.0706
     28 C         140.5638  141.7800  168.0986 C.3     1  UNL1        0.0219
     29 C         141.5445  142.4749  168.9960 C.3     1  UNL1        0.0286
     30 H         141.7092  141.3058  172.3269 H       1  UNL1        0.2102
@<TRIPOS>BOND
     1    23    22    1
     2    23    24    1
     3    23    25    1
     4    25    26    1
     5    26    27    1
     6    27    20    1
     7    20     1    1
     8     1     2   ar
     9     2     3   ar
    10     3     4   ar
    11     4     5   ar
    12     5     6   ar
    13     6     7   ar
    14     7    10    1
    15    10    11   ar
    16    11    12   ar
    17    12    13   ar
    18    13    14   ar
    19    14    16    1
    20    16    17    1
    21    16    18    1
    22    16    19    1
    23    14    15   ar
    24     7     8   ar
    25     8     9   ar
    26    27    28    1
    27    28    29    1
    28    29    23    1
    29     9     1   ar
    30     8     4   ar
    31    15    10   ar
    32    24    30    1
    33    20    21    1
@<TRIPOS>MOLECULE
*****
 30 33 0 0 0
SMALL
GASTEIGER

@<TRIPOS>ATOM
      1 C         139.2952  139.6552  166.8657 C.ar    1  UNL1        0.1488
      2 C         138.5891  138.4435  166.3337 C.ar    1  UNL1        0.0390
      3 C         138.4605  138.2402  164.8531 C.ar    1  UNL1        0.0417
      4 C         139.0379  139.2487  163.9046 C.ar    1  UNL1        0.1640
      5 N         139.0660  139.3163  162.4063 N.ar    1  UNL1       -0.2234
      6 C         139.7895  140.5699  162.0125 C.ar    1  UNL1        0.1197
      7 C         140.2084  141.2770  163.2673 C.ar    1  UNL1        0.1036
      8 N         139.7439  140.4604  164.4367 N.ar    1  UNL1       -0.2096
      9 N         139.8726  140.6637  165.9172 N.ar    1  UNL1       -0.1489
     10 C         140.9600  142.5731  163.3400 C.ar    1  UNL1        0.0192
     11 C         140.4958  143.7550  162.5415 C.ar    1  UNL1        0.0015
     12 C         141.2474  145.0511  162.6142 C.ar    1  UNL1       -0.0000
     13 C         142.4630  145.1654  163.4853 C.ar    1  UNL1        0.0039
     14 C         142.9272  143.9834  164.2839 C.ar    1  UNL1        0.0715
     15 C         142.1756  142.6873  164.2112 C.ar    1  UNL1        0.0054
     16 C         144.1429  144.0977  165.1552 C.3     1  UNL1        0.4186
     17 F         145.3586  144.2118  166.0264 F       1  UNL1       -0.1659
     18 F         144.0095  142.6517  165.5309 F       1  UNL1       -0.1659
     19 F         144.2764  145.5437  164.7794 F       1  UNL1       -0.1659
     20 N         139.4239  139.8586  168.3463 N.pl3   1  UNL1       -0.3184
     21 H         138.7952  139.4150  168.9606 H       1  UNL1        0.1482
     22 C         144.1800  142.5568  170.0609 C.3     1  UNL1        0.0293
     23 C         142.6834  142.4958  169.9804 C.3     1  UNL1        0.0885
     24 O         142.8515  143.7816  170.7344 O.3     1  UNL1       -0.3867
     25 C         141.2452  142.8813  170.1617 C.3     1  UNL1        0.0286
     26 C         140.1587  142.0022  169.6170 C.3     1  UNL1        0.0219
     27 C         140.5104  140.7376  168.8910 C.3     1  UNL1        0.0706
     28 C         141.9486  140.3521  168.7097 C.3     1  UNL1        0.0219
     29 C         143.0351  141.2312  169.2544 C.3     1  UNL1        0.0286
     30 H         141.9792  144.1591  170.9281 H       1  UNL1        0.2102
@<TRIPOS>BOND
     1    23    22    1
     2    23    24    1
     3    23    25    1
     4    25    26    1
     5    26    27    1
     6    27    20    1
     7    20     1    1
     8     1     2   ar
     9     2     3   ar
    10     3     4   ar
    11     4     5   ar
    12     5     6   ar
    13     6     7   ar
    14     7    10    1
    15    10    11   ar
    16    11    12   ar
    17    12    13   ar
    18    13    14   ar
    19    14    16    1
    20    16    17    1
    21    16    18    1
    22    16    19    1
    23    14    15   ar
    24     7     8   ar
    25     8     9   ar
    26    27    28    1
    27    28    29    1
    28    29    23    1
    29     9     1   ar
    30     8     4   ar
    31    15    10   ar
    32    24    30    1
    33    20    21    1
@<TRIPOS>MOLECULE
*****
 30 33 0 0 0
SMALL
GASTEIGER

@<TRIPOS>ATOM
      1 C         139.2641  139.8744  167.9703 C.ar    1  UNL1        0.1488
      2 C         139.0659  140.1184  169.4370 C.ar    1  UNL1        0.0390
      3 C         140.0903  140.8912  170.2138 C.ar    1  UNL1        0.0417
      4 C         141.3128  141.4199  169.5240 C.ar    1  UNL1        0.1640
      5 N         142.4853  142.2100  170.0251 N.ar    1  UNL1       -0.2234
      6 C         143.4082  142.4543  168.8680 C.ar    1  UNL1        0.1197
      7 C         142.8060  141.8151  167.6519 C.ar    1  UNL1        0.1036
      8 N         141.5110  141.1759  168.0573 N.ar    1  UNL1       -0.2096
      9 N         140.4867  140.4031  167.2805 N.ar    1  UNL1       -0.1489
     10 C         143.3953  141.8152  166.2726 C.ar    1  UNL1        0.0192
     11 C         143.9948  143.0713  165.7132 C.ar    1  UNL1        0.0015
     12 C         144.5842  143.0714  164.3338 C.ar    1  UNL1       -0.0000
     13 C         144.5741  141.8154  163.5138 C.ar    1  UNL1        0.0039
     14 C         143.9746  140.5594  164.0732 C.ar    1  UNL1        0.0715
     15 C         143.3852  140.5593  165.4525 C.ar    1  UNL1        0.0054
     16 C         143.9644  139.3033  163.2531 C.3     1  UNL1        0.4186
     17 F         143.9543  138.0474  162.4331 F       1  UNL1       -0.1659
     18 F         144.7493  139.9977  162.1800 F       1  UNL1       -0.1659
     19 F         143.1795  138.6090  164.3263 F       1  UNL1       -0.1659
     20 N         138.2398  139.1016  167.1934 N.pl3   1  UNL1       -0.3184
     21 H         137.4811  138.6823  167.6603 H       1  UNL1        0.1482
     22 C         138.4268  139.5040  161.4799 C.3     1  UNL1        0.0293
     23 C         138.6343  138.6996  162.7288 C.3     1  UNL1        0.0885
     24 O         139.0432  137.6899  161.6977 O.3     1  UNL1       -0.3867
     25 C         138.9838  137.5445  163.6196 C.3     1  UNL1        0.0286
     26 C         138.8523  137.6785  165.1079 C.3     1  UNL1        0.0219
     27 C         138.3713  138.9676  165.7052 C.3     1  UNL1        0.0706
     28 C         138.0218  140.1227  164.8143 C.3     1  UNL1        0.0219
     29 C         138.1533  139.9887  163.3262 C.3     1  UNL1        0.0286
     30 H         139.3038  136.8657  162.1378 H       1  UNL1        0.2102
@<TRIPOS>BOND
     1    23    22    1
     2    23    24    1
     3    23    25    1
     4    25    26    1
     5    26    27    1
     6    27    20    1
     7    20     1    1
     8     1     2   ar
     9     2     3   ar
    10     3     4   ar
    11     4     5   ar
    12     5     6   ar
    13     6     7   ar
    14     7    10    1
    15    10    11   ar
    16    11    12   ar
    17    12    13   ar
    18    13    14   ar
    19    14    16    1
    20    16    17    1
    21    16    18    1
    22    16    19    1
    23    14    15   ar
    24     7     8   ar
    25     8     9   ar
    26    27    28    1
    27    28    29    1
    28    29    23    1
    29     9     1   ar
    30     8     4   ar
    31    15    10   ar
    32    24    30    1
    33    20    21    1
@<TRIPOS>MOLECULE
*****
 30 33 0 0 0
SMALL
GASTEIGER

@<TRIPOS>ATOM
      1 C         142.6243  139.8270  165.2515 C.ar    1  UNL1        0.1488
      2 C         143.9892  139.2278  165.0847 C.ar    1  UNL1        0.0390
      3 C         144.9508  139.8161  164.0951 C.ar    1  UNL1        0.0417
      4 C         144.5474  141.0037  163.2723 C.ar    1  UNL1        0.1640
      5 N         145.2757  141.7936  162.2255 N.ar    1  UNL1       -0.2234
      6 C         144.3609  142.8810  161.7454 C.ar    1  UNL1        0.1197
      7 C         143.0672  142.7632  162.4954 C.ar    1  UNL1        0.1036
      8 N         143.1825  141.6029  163.4391 N.ar    1  UNL1       -0.2096
      9 N         142.2209  141.0146  164.4287 N.ar    1  UNL1       -0.1489
     10 C         141.8687  143.6499  162.3307 C.ar    1  UNL1        0.0192
     11 C         141.7786  144.5788  161.1564 C.ar    1  UNL1        0.0015
     12 C         140.5801  145.4656  160.9917 C.ar    1  UNL1       -0.0000
     13 C         139.4715  145.4235  162.0013 C.ar    1  UNL1        0.0039
     14 C         139.5615  144.4945  163.1756 C.ar    1  UNL1        0.0715
     15 C         140.7601  143.6078  163.3403 C.ar    1  UNL1        0.0054
     16 C         138.4529  144.4524  164.1853 C.3     1  UNL1        0.4186
     17 F         137.3444  144.4102  165.1949 F       1  UNL1       -0.1659
     18 F         139.3313  145.1530  165.1789 F       1  UNL1       -0.1659
     19 F         137.5745  143.7517  163.1915 F       1  UNL1       -0.1659
     20 N         141.6627  139.2387  166.2411 N.pl3   1  UNL1       -0.3184
     21 H         141.0697  138.5004  165.9720 H       1  UNL1        0.1482
     22 C         140.7037  141.8260  171.2638 C.3     1  UNL1        0.0293
     23 C         141.4885  140.8489  170.4395 C.3     1  UNL1        0.0885
     24 O         142.1842  140.6942  171.7593 O.3     1  UNL1       -0.3867
     25 C         142.5149  139.8181  170.0736 C.3     1  UNL1        0.0286
     26 C         142.5730  139.2814  168.6741 C.3     1  UNL1        0.0219
     27 C         141.6047  139.7754  167.6405 C.3     1  UNL1        0.0706
     28 C         140.5782  140.8063  168.0065 C.3     1  UNL1        0.0219
     29 C         140.5201  141.3430  169.4060 C.3     1  UNL1        0.0286
     30 H         142.8949  140.0393  171.6753 H       1  UNL1        0.2102
@<TRIPOS>BOND
     1    23    22    1
     2    23    24    1
     3    23    25    1
     4    25    26    1
     5    26    27    1
     6    27    20    1
     7    20     1    1
     8     1     2   ar
     9     2     3   ar
    10     3     4   ar
    11     4     5   ar
    12     5     6   ar
    13     6     7   ar
    14     7    10    1
    15    10    11   ar
    16    11    12   ar
    17    12    13   ar
    18    13    14   ar
    19    14    16    1
    20    16    17    1
    21    16    18    1
    22    16    19    1
    23    14    15   ar
    24     7     8   ar
    25     8     9   ar
    26    27    28    1
    27    28    29    1
    28    29    23    1
    29     9     1   ar
    30     8     4   ar
    31    15    10   ar
    32    24    30    1
    33    20    21    1
@<TRIPOS>MOLECULE
*****
 30 33 0 0 0
SMALL
GASTEIGER

@<TRIPOS>ATOM
      1 C         139.2517  139.8368  168.1327 C.ar    1  UNL1        0.1488
      2 C         139.0770  140.1021  169.5986 C.ar    1  UNL1        0.0390
      3 C         140.1123  140.8883  170.3470 C.ar    1  UNL1        0.0417
      4 C         141.3222  141.4092  169.6295 C.ar    1  UNL1        0.1640
      5 N         142.5010  142.2089  170.0995 N.ar    1  UNL1       -0.2234
      6 C         143.4042  142.4378  168.9240 C.ar    1  UNL1        0.1197
      7 C         142.7836  141.7796  167.7275 C.ar    1  UNL1        0.1036
      8 N         141.4968  141.1439  168.1635 N.ar    1  UNL1       -0.2096
      9 N         140.4616  140.3577  167.4151 N.ar    1  UNL1       -0.1489
     10 C         143.3502  141.7605  166.3388 C.ar    1  UNL1        0.0192
     11 C         143.7663  140.4607  165.7164 C.ar    1  UNL1        0.0015
     12 C         144.3330  140.4416  164.3277 C.ar    1  UNL1       -0.0000
     13 C         144.4835  141.7222  163.5613 C.ar    1  UNL1        0.0039
     14 C         144.0673  143.0220  164.1837 C.ar    1  UNL1        0.0715
     15 C         143.5007  143.0411  165.5724 C.ar    1  UNL1        0.0054
     16 C         144.2178  144.3027  163.4174 C.3     1  UNL1        0.4186
     17 F         144.3683  145.5834  162.6511 F       1  UNL1       -0.1659
     18 F         144.1179  145.0797  164.6965 F       1  UNL1       -0.1659
     19 F         144.3177  143.5255  162.1383 F       1  UNL1       -0.1659
     20 N         138.2164  139.0506  167.3842 N.pl3   1  UNL1       -0.3184
     21 H         137.4767  138.6212  167.8717 H       1  UNL1        0.1482
     22 C         138.2656  139.4656  161.6687 C.3     1  UNL1        0.0293
     23 C         138.4918  138.6546  162.9101 C.3     1  UNL1        0.0885
     24 O         138.8585  137.6414  161.8666 O.3     1  UNL1       -0.3867
     25 C         138.8453  137.4917  163.7891 C.3     1  UNL1        0.0286
     26 C         138.7535  137.6237  165.2805 C.3     1  UNL1        0.0219
     27 C         138.3082  138.9186  165.8928 C.3     1  UNL1        0.0706
     28 C         137.9547  140.0815  165.0137 C.3     1  UNL1        0.0219
     29 C         138.0465  139.9495  163.5224 C.3     1  UNL1        0.0286
     30 H         139.1170  136.8120  162.2981 H       1  UNL1        0.2102
@<TRIPOS>BOND
     1    23    22    1
     2    23    24    1
     3    23    25    1
     4    25    26    1
     5    26    27    1
     6    27    20    1
     7    20     1    1
     8     1     2   ar
     9     2     3   ar
    10     3     4   ar
    11     4     5   ar
    12     5     6   ar
    13     6     7   ar
    14     7    10    1
    15    10    11   ar
    16    11    12   ar
    17    12    13   ar
    18    13    14   ar
    19    14    16    1
    20    16    17    1
    21    16    18    1
    22    16    19    1
    23    14    15   ar
    24     7     8   ar
    25     8     9   ar
    26    27    28    1
    27    28    29    1
    28    29    23    1
    29     9     1   ar
    30     8     4   ar
    31    15    10   ar
    32    24    30    1
    33    20    21    1
@<TRIPOS>MOLECULE
*****
 30 33 0 0 0
SMALL
GASTEIGER

@<TRIPOS>ATOM
      1 C         140.2772  139.2362  165.3165 C.ar    1  UNL1        0.1488
      2 C         139.6951  137.8951  164.9812 C.ar    1  UNL1        0.0390
      3 C         138.8233  137.7373  163.7708 C.ar    1  UNL1        0.0417
      4 C         138.5337  138.9206  162.8957 C.ar    1  UNL1        0.1640
      5 N         137.7160  139.0693  161.6469 N.ar    1  UNL1       -0.2234
      6 C         137.7928  140.5023  161.2105 C.ar    1  UNL1        0.1197
      7 C         138.6579  141.2393  162.1895 C.ar    1  UNL1        0.1036
      8 N         139.1158  140.2618  163.2310 N.ar    1  UNL1       -0.2096
      9 N         139.9876  140.4195  164.4414 N.ar    1  UNL1       -0.1489
     10 C         139.0044  142.6978  162.1364 C.ar    1  UNL1        0.0192
     11 C         138.5425  143.6186  163.2267 C.ar    1  UNL1        0.0015
     12 C         138.8889  145.0771  163.1735 C.ar    1  UNL1       -0.0000
     13 C         139.6972  145.6148  162.0301 C.ar    1  UNL1        0.0039
     14 C         140.1591  144.6940  160.9398 C.ar    1  UNL1        0.0715
     15 C         139.8127  143.2355  160.9930 C.ar    1  UNL1        0.0054
     16 C         140.9675  145.2317  159.7963 C.3     1  UNL1        0.4186
     17 F         141.7758  145.7694  158.6529 F       1  UNL1       -0.1659
     18 F         139.7915  146.0481  159.3489 F       1  UNL1       -0.1659
     19 F         142.1436  144.4152  160.2438 F       1  UNL1       -0.1659
     20 N         141.1490  139.3940  166.5269 N.pl3   1  UNL1       -0.3184
     21 H         141.9438  138.8239  166.6389 H       1  UNL1        0.1482
     22 C         140.4223  143.9056  169.9851 C.3     1  UNL1        0.0293
     23 C         140.1317  142.4735  169.6465 C.3     1  UNL1        0.0885
     24 O         139.3215  142.6141  170.9010 O.3     1  UNL1       -0.3867
     25 C         139.5597  141.0903  169.7436 C.3     1  UNL1        0.0286
     26 C         139.8988  140.0637  168.7037 C.3     1  UNL1        0.0219
     27 C         140.8099  140.4205  167.5668 C.3     1  UNL1        0.0706
     28 C         141.3819  141.8038  167.4697 C.3     1  UNL1        0.0219
     29 C         141.0427  142.8303  168.5095 C.3     1  UNL1        0.0286
     30 H         138.8799  141.7729  171.0967 H       1  UNL1        0.2102
@<TRIPOS>BOND
     1    23    22    1
     2    23    24    1
     3    23    25    1
     4    25    26    1
     5    26    27    1
     6    27    20    1
     7    20     1    1
     8     1     2   ar
     9     2     3   ar
    10     3     4   ar
    11     4     5   ar
    12     5     6   ar
    13     6     7   ar
    14     7    10    1
    15    10    11   ar
    16    11    12   ar
    17    12    13   ar
    18    13    14   ar
    19    14    16    1
    20    16    17    1
    21    16    18    1
    22    16    19    1
    23    14    15   ar
    24     7     8   ar
    25     8     9   ar
    26    27    28    1
    27    28    29    1
    28    29    23    1
    29     9     1   ar
    30     8     4   ar
    31    15    10   ar
    32    24    30    1
    33    20    21    1
@<TRIPOS>MOLECULE
*****
 30 33 0 0 0
SMALL
GASTEIGER

@<TRIPOS>ATOM
      1 C         141.7521  138.8901  165.4966 C.ar    1  UNL1        0.1488
      2 C         141.7218  137.4556  165.0592 C.ar    1  UNL1        0.0390
      3 C         141.0821  137.0826  163.7548 C.ar    1  UNL1        0.0417
      4 C         140.4726  138.1441  162.8878 C.ar    1  UNL1        0.1640
      5 N         139.7773  138.0788  161.5602 N.ar    1  UNL1       -0.2234
      6 C         139.3778  139.4729  161.1771 C.ar    1  UNL1        0.1197
      7 C         139.8263  140.3998  162.2679 C.ar    1  UNL1        0.1036
      8 N         140.5028  139.5785  163.3251 N.ar    1  UNL1       -0.2096
      9 N         141.1426  139.9515  164.6296 N.ar    1  UNL1       -0.1489
     10 C         139.6321  141.8869  162.2965 C.ar    1  UNL1        0.0192
     11 C         139.8465  142.6953  161.0513 C.ar    1  UNL1        0.0015
     12 C         139.6524  144.1824  161.0799 C.ar    1  UNL1       -0.0000
     13 C         139.2440  144.8612  162.3536 C.ar    1  UNL1        0.0039
     14 C         139.0296  144.0528  163.5988 C.ar    1  UNL1        0.0715
     15 C         139.2237  142.5657  163.5702 C.ar    1  UNL1        0.0054
     16 C         138.6210  144.7315  164.8726 C.3     1  UNL1        0.4186
     17 F         138.2125  145.4102  166.1464 F       1  UNL1       -0.1659
     18 F         137.2757  144.0733  164.7918 F       1  UNL1       -0.1659
     19 F         139.9665  145.3897  164.9534 F       1  UNL1       -0.1659
     20 N         142.3918  139.2631  166.8011 N.pl3   1  UNL1       -0.3184
     21 H         143.2542  138.8640  167.0583 H       1  UNL1        0.1482
     22 C         140.4269  143.6593  169.9082 C.3     1  UNL1        0.0293
     23 C         140.3692  142.2067  169.5386 C.3     1  UNL1        0.0885
     24 O         139.2785  142.2574  170.5670 O.3     1  UNL1       -0.3867
     25 C         139.9326  140.7718  169.5262 C.3     1  UNL1        0.0286
     26 C         140.6068  139.7905  168.6137 C.3     1  UNL1        0.0219
     27 C         141.7176  140.2443  167.7136 C.3     1  UNL1        0.0706
     28 C         142.1542  141.6794  167.7260 C.3     1  UNL1        0.0219
     29 C         141.4800  142.6605  168.6385 C.3     1  UNL1        0.0286
     30 H         138.8903  141.3745  170.6705 H       1  UNL1        0.2102
@<TRIPOS>BOND
     1    23    22    1
     2    23    24    1
     3    23    25    1
     4    25    26    1
     5    26    27    1
     6    27    20    1
     7    20     1    1
     8     1     2   ar
     9     2     3   ar
    10     3     4   ar
    11     4     5   ar
    12     5     6   ar
    13     6     7   ar
    14     7    10    1
    15    10    11   ar
    16    11    12   ar
    17    12    13   ar
    18    13    14   ar
    19    14    16    1
    20    16    17    1
    21    16    18    1
    22    16    19    1
    23    14    15   ar
    24     7     8   ar
    25     8     9   ar
    26    27    28    1
    27    28    29    1
    28    29    23    1
    29     9     1   ar
    30     8     4   ar
    31    15    10   ar
    32    24    30    1
    33    20    21    1
@<TRIPOS>MOLECULE
*****
 30 33 0 0 0
SMALL
GASTEIGER

@<TRIPOS>ATOM
      1 C         139.1796  139.5302  166.9502 C.ar    1  UNL1        0.1488
      2 C         138.5761  138.2120  166.5655 C.ar    1  UNL1        0.0390
      3 C         138.5454  137.7930  165.1255 C.ar    1  UNL1        0.0417
      4 C         139.1181  138.6923  164.0704 C.ar    1  UNL1        0.1640
      5 N         139.2292  138.5485  162.5813 N.ar    1  UNL1       -0.2234
      6 C         139.9013  139.7780  162.0459 C.ar    1  UNL1        0.1197
      7 C         140.2056  140.6815  163.2040 C.ar    1  UNL1        0.1036
      8 N         139.7215  140.0105  164.4551 N.ar    1  UNL1       -0.2096
      9 N         139.7523  140.4295  165.8951 N.ar    1  UNL1       -0.1489
     10 C         140.8761  142.0209  163.1248 C.ar    1  UNL1        0.0192
     11 C         142.2952  142.1776  163.5850 C.ar    1  UNL1        0.0015
     12 C         142.9658  143.5170  163.5058 C.ar    1  UNL1       -0.0000
     13 C         142.2174  144.6998  162.9665 C.ar    1  UNL1        0.0039
     14 C         140.7984  144.5431  162.5063 C.ar    1  UNL1        0.0715
     15 C         140.1278  143.2037  162.5855 C.ar    1  UNL1        0.0054
     16 C         140.0499  145.7259  161.9669 C.3     1  UNL1        0.4186
     17 F         139.3015  146.9087  161.4275 F       1  UNL1       -0.1659
     18 F         140.9599  145.7582  160.7750 F       1  UNL1       -0.1659
     19 F         139.1399  145.6936  163.1589 F       1  UNL1       -0.1659
     20 N         139.2103  139.9492  168.3902 N.pl3   1  UNL1       -0.3184
     21 H         138.4871  139.6735  168.9987 H       1  UNL1        0.1482
     22 C         144.1050  142.4427  170.0230 C.3     1  UNL1        0.0293
     23 C         142.6082  142.4666  169.9289 C.3     1  UNL1        0.0885
     24 O         142.8466  143.7760  170.6206 O.3     1  UNL1       -0.3867
     25 C         141.1942  142.9452  170.0750 C.3     1  UNL1        0.0286
     26 C         140.0615  142.1061  169.5621 C.3     1  UNL1        0.0219
     27 C         140.3429  140.7883  168.9031 C.3     1  UNL1        0.0706
     28 C         141.7570  140.3097  168.7570 C.3     1  UNL1        0.0219
     29 C         142.8896  141.1488  169.2699 C.3     1  UNL1        0.0286
     30 H         141.9969  144.2138  170.7858 H       1  UNL1        0.2102
@<TRIPOS>BOND
     1    23    22    1
     2    23    24    1
     3    23    25    1
     4    25    26    1
     5    26    27    1
     6    27    20    1
     7    20     1    1
     8     1     2   ar
     9     2     3   ar
    10     3     4   ar
    11     4     5   ar
    12     5     6   ar
    13     6     7   ar
    14     7    10    1
    15    10    11   ar
    16    11    12   ar
    17    12    13   ar
    18    13    14   ar
    19    14    16    1
    20    16    17    1
    21    16    18    1
    22    16    19    1
    23    14    15   ar
    24     7     8   ar
    25     8     9   ar
    26    27    28    1
    27    28    29    1
    28    29    23    1
    29     9     1   ar
    30     8     4   ar
    31    15    10   ar
    32    24    30    1
    33    20    21    1
