@<TRIPOS>MOLECULE
*****
 28 31 0 0 0
SMALL
GASTEIGER

@<TRIPOS>ATOM
      1 N         142.4675  138.6675  164.4316 N.3     1  UNL1       -0.2700
      2 C         142.5572  139.2885  163.0692 C.3     1  UNL1        0.0897
      3 C         141.4344  139.1140  162.0900 C.3     1  UNL1        0.0897
      4 N         140.2219  138.3184  162.4732 N.3     1  UNL1       -0.2700
      5 C         140.1321  137.6974  163.8357 C.3     1  UNL1        0.0897
      6 C         141.2550  137.8720  164.8149 C.3     1  UNL1        0.0897
      7 C         143.5903  138.8421  165.4108 C.3     1  UNL1        0.0769
      8 C         143.3748  138.5311  166.8623 C.3     1  UNL1        0.0437
      9 C         141.3222  141.5233  169.5238 C.ar    1  UNL1        0.2900
     10 C         141.6647  141.8882  168.1098 C.ar    1  UNL1        0.0749
     11 C         142.3489  140.8908  167.2225 C.ar    1  UNL1        0.0021
     12 C         142.6906  139.5285  167.7494 C.ar    1  UNL1       -0.0204
     13 C         142.3480  139.1637  169.1635 C.ar    1  UNL1        0.0021
     14 C         141.6639  140.1611  170.0507 C.ar    1  UNL1        0.0749
     15 O         140.0627  143.7757  169.8246 O.2     1  UNL1        0.0415
     16 N         140.6380  142.5207  170.4110 N.pl3   1  UNL1        0.0809
     17 O         140.5292  142.2630  171.8847 O.co2   1  UNL1       -0.5760
     18 C         139.0991  138.1439  161.4940 C.3     1  UNL1        0.0769
     19 C         137.8544  138.9707  161.6250 C.3     1  UNL1        0.0437
     20 C         137.9569  140.4432  161.8924 C.ar    1  UNL1       -0.0191
     21 C         137.3763  141.0193  163.1497 C.ar    1  UNL1       -0.0025
     22 C         137.4788  142.4918  163.4171 C.ar    1  UNL1        0.0238
     23 C         138.1620  143.3880  162.4271 C.ar    1  UNL1        0.1431
     24 N         138.4139  144.8667  162.4190 N.ar    1  UNL1       -0.0483
     25 O         139.1503  145.2043  161.1565 O.2     1  UNL1       -0.2415
     26 N         139.3534  143.9344  160.3845 N.ar    1  UNL1       -0.0483
     27 C         138.7426  142.8118  161.1698 C.ar    1  UNL1        0.1428
     28 C         138.6401  141.3394  160.9024 C.ar    1  UNL1        0.0199
@<TRIPOS>UNITY_ATOM_ATTR
16 1
charge 1
17 1
charge -1
@<TRIPOS>BOND
     1    15    16    2
     2    16    17    1
     3    16     9    1
     4     9    10   ar
     5    10    11   ar
     6    11    12   ar
     7    12     8    1
     8     8     7    1
     9     7     1    1
    10     1     2    1
    11     2     3    1
    12     3     4    1
    13     4    18    1
    14    18    19    1
    15    19    20    1
    16    20    21   ar
    17    21    22   ar
    18    22    23   ar
    19    23    24   ar
    20    24    25   ar
    21    25    26   ar
    22    26    27   ar
    23    27    28   ar
    24     4     5    1
    25     5     6    1
    26    12    13   ar
    27    13    14   ar
    28    14     9   ar
    29     6     1    1
    30    28    20   ar
    31    27    23   ar
@<TRIPOS>MOLECULE
*****
 28 31 0 0 0
SMALL
GASTEIGER

@<TRIPOS>ATOM
      1 N         139.3221  138.2299  163.1557 N.3     1  UNL1       -0.2700
      2 C         140.7580  138.2463  162.7220 C.3     1  UNL1        0.0897
      3 C         141.8416  138.5072  163.7258 C.3     1  UNL1        0.0897
      4 N         141.4895  138.7516  165.1632 N.3     1  UNL1       -0.2700
      5 C         140.0536  138.7352  165.5969 C.3     1  UNL1        0.0897
      6 C         138.9700  138.4743  164.5930 C.3     1  UNL1        0.0897
      7 C         138.2384  137.9690  162.1518 C.3     1  UNL1        0.0769
      8 C         137.6969  139.0958  161.3229 C.3     1  UNL1        0.0437
      9 C         138.5229  143.3581  162.5061 C.ar    1  UNL1        0.2900
     10 C         137.5748  142.5252  163.3168 C.ar    1  UNL1        0.0749
     11 C         137.2994  141.1043  162.9224 C.ar    1  UNL1        0.0021
     12 C         137.9722  140.5166  161.7173 C.ar    1  UNL1       -0.0204
     13 C         138.9203  141.3497  160.9067 C.ar    1  UNL1        0.0021
     14 C         139.1956  142.7705  161.3011 C.ar    1  UNL1        0.0749
     15 O         138.9218  145.8393  161.8468 O.2     1  UNL1        0.0415
     16 N         138.7982  144.7790  162.9005 N.pl3   1  UNL1        0.0809
     17 O         138.9500  145.1394  164.3486 O.co2   1  UNL1       -0.5760
     18 C         142.5732  139.0125  166.1670 C.3     1  UNL1        0.0769
     19 C         142.9063  140.4207  166.5621 C.3     1  UNL1        0.0437
     20 C         142.1218  141.1015  167.6443 C.ar    1  UNL1       -0.0191
     21 C         141.1719  142.2095  167.2982 C.ar    1  UNL1       -0.0025
     22 C         140.3874  142.8904  168.3804 C.ar    1  UNL1        0.0238
     23 C         140.5529  142.4630  169.8087 C.ar    1  UNL1        0.1431
     24 N         139.9194  142.9446  171.0802 N.ar    1  UNL1       -0.0483
     25 O         140.4779  142.1342  172.2121 O.2     1  UNL1       -0.2415
     26 N         141.4565  141.1517  171.6402 N.ar    1  UNL1       -0.0483
     27 C         141.5028  141.3549  170.1547 C.ar    1  UNL1        0.1428
     28 C         142.2873  140.6742  169.0725 C.ar    1  UNL1        0.0199
@<TRIPOS>UNITY_ATOM_ATTR
16 1
charge 1
17 1
charge -1
@<TRIPOS>BOND
     1    15    16    2
     2    16    17    1
     3    16     9    1
     4     9    10   ar
     5    10    11   ar
     6    11    12   ar
     7    12     8    1
     8     8     7    1
     9     7     1    1
    10     1     2    1
    11     2     3    1
    12     3     4    1
    13     4    18    1
    14    18    19    1
    15    19    20    1
    16    20    21   ar
    17    21    22   ar
    18    22    23   ar
    19    23    24   ar
    20    24    25   ar
    21    25    26   ar
    22    26    27   ar
    23    27    28   ar
    24     4     5    1
    25     5     6    1
    26    12    13   ar
    27    13    14   ar
    28    14     9   ar
    29     6     1    1
    30    28    20   ar
    31    27    23   ar
@<TRIPOS>MOLECULE
*****
 28 31 0 0 0
SMALL
GASTEIGER

@<TRIPOS>ATOM
      1 N         141.6036  138.0174  164.5255 N.3     1  UNL1       -0.2700
      2 C         142.2168  138.7682  165.6702 C.3     1  UNL1        0.0897
      3 C         143.4348  139.6143  165.4455 C.3     1  UNL1        0.0897
      4 N         144.0397  139.7096  164.0762 N.3     1  UNL1       -0.2700
      5 C         143.4266  138.9586  162.9315 C.3     1  UNL1        0.0897
      6 C         142.2085  138.1126  163.1563 C.3     1  UNL1        0.0897
      7 C         140.3855  137.1713  164.7502 C.3     1  UNL1        0.0769
      8 C         139.0598  137.8208  165.0158 C.3     1  UNL1        0.0437
      9 C         138.0716  141.7773  163.1135 C.ar    1  UNL1        0.2900
     10 C         138.3528  141.7022  164.5849 C.ar    1  UNL1        0.0749
     11 C         138.6823  140.3833  165.2191 C.ar    1  UNL1        0.0021
     12 C         138.7304  139.1397  164.3817 C.ar    1  UNL1       -0.0204
     13 C         138.4492  139.2149  162.9103 C.ar    1  UNL1        0.0021
     14 C         138.1197  140.5338  162.2761 C.ar    1  UNL1        0.0749
     15 O         137.4498  144.2898  163.3393 O.2     1  UNL1        0.0415
     16 N         137.7422  143.0962  162.4793 N.pl3   1  UNL1        0.0809
     17 O         137.7051  143.2213  160.9850 O.co2   1  UNL1       -0.5760
     18 C         145.2578  140.5556  163.8515 C.3     1  UNL1        0.0769
     19 C         145.2126  142.0269  164.1402 C.3     1  UNL1        0.0437
     20 C         144.0270  142.8394  163.7107 C.ar    1  UNL1       -0.0191
     21 C         143.0038  143.2653  164.7213 C.ar    1  UNL1       -0.0025
     22 C         141.8182  144.0778  164.2917 C.ar    1  UNL1        0.0238
     23 C         141.6560  144.4642  162.8515 C.ar    1  UNL1        0.1431
     24 N         140.5998  145.2542  162.1371 N.ar    1  UNL1       -0.0483
     25 O         140.9703  145.3164  160.6850 O.2     1  UNL1       -0.2415
     26 N         142.2555  144.5650  160.5018 N.ar    1  UNL1       -0.0483
     27 C         142.6793  144.0383  161.8408 C.ar    1  UNL1        0.1428
     28 C         143.8648  143.2259  162.2704 C.ar    1  UNL1        0.0199
@<TRIPOS>UNITY_ATOM_ATTR
16 1
charge 1
17 1
charge -1
@<TRIPOS>BOND
     1    15    16    2
     2    16    17    1
     3    16     9    1
     4     9    10   ar
     5    10    11   ar
     6    11    12   ar
     7    12     8    1
     8     8     7    1
     9     7     1    1
    10     1     2    1
    11     2     3    1
    12     3     4    1
    13     4    18    1
    14    18    19    1
    15    19    20    1
    16    20    21   ar
    17    21    22   ar
    18    22    23   ar
    19    23    24   ar
    20    24    25   ar
    21    25    26   ar
    22    26    27   ar
    23    27    28   ar
    24     4     5    1
    25     5     6    1
    26    12    13   ar
    27    13    14   ar
    28    14     9   ar
    29     6     1    1
    30    28    20   ar
    31    27    23   ar
@<TRIPOS>MOLECULE
*****
 28 31 0 0 0
SMALL
GASTEIGER

@<TRIPOS>ATOM
      1 N         142.2960  138.1020  162.5774 N.3     1  UNL1       -0.2700
      2 C         140.9396  138.1179  161.9373 C.3     1  UNL1        0.0897
      3 C         139.7086  138.2005  162.7904 C.3     1  UNL1        0.0897
      4 N         139.8340  138.2672  164.2837 N.3     1  UNL1       -0.2700
      5 C         141.1906  138.2513  164.9238 C.3     1  UNL1        0.0897
      6 C         142.4215  138.1687  164.0706 C.3     1  UNL1        0.0897
      7 C         143.5270  138.0193  161.7242 C.3     1  UNL1        0.0769
      8 C         144.1788  139.2745  161.2246 C.3     1  UNL1        0.0437
      9 C         144.2694  142.9493  163.8203 C.ar    1  UNL1        0.2900
     10 C         145.2052  141.8108  164.0994 C.ar    1  UNL1        0.0749
     11 C         145.1750  140.5858  163.2342 C.ar    1  UNL1        0.0021
     12 C         144.2090  140.4994  162.0898 C.ar    1  UNL1       -0.0204
     13 C         143.2732  141.6381  161.8108 C.ar    1  UNL1        0.0021
     14 C         143.3034  142.8630  162.6760 C.ar    1  UNL1        0.0749
     15 O         145.1103  144.1815  165.9474 O.2     1  UNL1        0.0415
     16 N         144.2995  144.1743  164.6855 N.pl3   1  UNL1        0.0809
     17 O         143.5189  145.3921  164.2887 O.co2   1  UNL1       -0.5760
     18 C         138.6031  138.3499  165.1368 C.3     1  UNL1        0.0769
     19 C         138.2662  139.6282  165.8456 C.3     1  UNL1        0.0437
     20 C         138.6516  140.9454  165.2401 C.ar    1  UNL1       -0.0191
     21 C         139.7477  141.7625  165.8573 C.ar    1  UNL1       -0.0025
     22 C         140.1331  143.0797  165.2518 C.ar    1  UNL1        0.0238
     23 C         139.4224  143.5797  164.0292 C.ar    1  UNL1        0.1431
     24 N         139.5825  144.8301  163.2162 N.ar    1  UNL1       -0.0483
     25 O         138.5853  144.7857  162.0965 O.2     1  UNL1       -0.2415
     26 N         137.8089  143.5080  162.2176 N.ar    1  UNL1       -0.0483
     27 C         138.3263  142.7626  163.4121 C.ar    1  UNL1        0.1428
     28 C         137.9409  141.4455  164.0175 C.ar    1  UNL1        0.0199
@<TRIPOS>UNITY_ATOM_ATTR
16 1
charge 1
17 1
charge -1
@<TRIPOS>BOND
     1    15    16    2
     2    16    17    1
     3    16     9    1
     4     9    10   ar
     5    10    11   ar
     6    11    12   ar
     7    12     8    1
     8     8     7    1
     9     7     1    1
    10     1     2    1
    11     2     3    1
    12     3     4    1
    13     4    18    1
    14    18    19    1
    15    19    20    1
    16    20    21   ar
    17    21    22   ar
    18    22    23   ar
    19    23    24   ar
    20    24    25   ar
    21    25    26   ar
    22    26    27   ar
    23    27    28   ar
    24     4     5    1
    25     5     6    1
    26    12    13   ar
    27    13    14   ar
    28    14     9   ar
    29     6     1    1
    30    28    20   ar
    31    27    23   ar
@<TRIPOS>MOLECULE
*****
 28 31 0 0 0
SMALL
GASTEIGER

@<TRIPOS>ATOM
      1 N         137.9093  140.2203  162.1076 N.3     1  UNL1       -0.2700
      2 C         137.7638  140.3398  163.5957 C.3     1  UNL1        0.0897
      3 C         137.7664  141.6928  164.2433 C.3     1  UNL1        0.0897
      4 N         137.9144  142.9263  163.4027 N.3     1  UNL1       -0.2700
      5 C         138.0600  142.8068  161.9145 C.3     1  UNL1        0.0897
      6 C         138.0574  141.4537  161.2670 C.3     1  UNL1        0.0897
      7 C         137.9068  138.8672  161.4601 C.3     1  UNL1        0.0769
      8 C         139.2030  138.1607  161.1939 C.3     1  UNL1        0.0437
      9 C         142.6641  138.6672  164.0247 C.ar    1  UNL1        0.2900
     10 C         142.5160  139.5871  162.8492 C.ar    1  UNL1        0.0749
     11 C         141.3622  139.4183  161.9056 C.ar    1  UNL1        0.0021
     12 C         140.3567  138.3296  162.1375 C.ar    1  UNL1       -0.0204
     13 C         140.5049  137.4097  163.3131 C.ar    1  UNL1        0.0021
     14 C         141.6586  137.5786  164.2567 C.ar    1  UNL1        0.0749
     15 O         143.6613  138.4769  166.4163 O.2     1  UNL1        0.0415
     16 N         143.8178  138.8360  164.9684 N.pl3   1  UNL1        0.0809
     17 O         145.1281  139.3640  164.4641 O.co2   1  UNL1       -0.5760
     18 C         137.9170  144.2793  164.0502 C.3     1  UNL1        0.0769
     19 C         139.0826  144.7053  164.8928 C.3     1  UNL1        0.0437
     20 C         140.4512  144.1602  164.6102 C.ar    1  UNL1       -0.0191
     21 C         141.0401  143.1108  165.5055 C.ar    1  UNL1       -0.0025
     22 C         142.4087  142.5657  165.2229 C.ar    1  UNL1        0.0238
     23 C         143.1883  143.0701  164.0449 C.ar    1  UNL1        0.1431
     24 N         144.5499  142.7235  163.5195 N.ar    1  UNL1       -0.0483
     25 O         144.8024  143.5587  162.2995 O.2     1  UNL1       -0.2415
     26 N         143.5970  144.4216  162.0708 N.ar    1  UNL1       -0.0483
     27 C         142.5994  144.1196  163.1495 C.ar    1  UNL1        0.1428
     28 C         141.2308  144.6647  163.4321 C.ar    1  UNL1        0.0199
@<TRIPOS>UNITY_ATOM_ATTR
16 1
charge 1
17 1
charge -1
@<TRIPOS>BOND
     1    15    16    2
     2    16    17    1
     3    16     9    1
     4     9    10   ar
     5    10    11   ar
     6    11    12   ar
     7    12     8    1
     8     8     7    1
     9     7     1    1
    10     1     2    1
    11     2     3    1
    12     3     4    1
    13     4    18    1
    14    18    19    1
    15    19    20    1
    16    20    21   ar
    17    21    22   ar
    18    22    23   ar
    19    23    24   ar
    20    24    25   ar
    21    25    26   ar
    22    26    27   ar
    23    27    28   ar
    24     4     5    1
    25     5     6    1
    26    12    13   ar
    27    13    14   ar
    28    14     9   ar
    29     6     1    1
    30    28    20   ar
    31    27    23   ar
@<TRIPOS>MOLECULE
*****
 28 31 0 0 0
SMALL
GASTEIGER

@<TRIPOS>ATOM
      1 N         139.2042  138.1948  162.8740 N.3     1  UNL1       -0.2700
      2 C         140.5826  138.3428  162.3012 C.3     1  UNL1        0.0897
      3 C         141.7610  138.5053  163.2149 C.3     1  UNL1        0.0897
      4 N         141.5610  138.5198  164.7015 N.3     1  UNL1       -0.2700
      5 C         140.1825  138.3719  165.2743 C.3     1  UNL1        0.0897
      6 C         139.0042  138.2094  164.3605 C.3     1  UNL1        0.0897
      7 C         138.0257  138.0323  161.9602 C.3     1  UNL1        0.0769
      8 C         137.5420  139.1956  161.1462 C.3     1  UNL1        0.0437
      9 C         138.4688  143.3994  162.4570 C.ar    1  UNL1        0.2900
     10 C         139.0041  142.8852  161.1536 C.ar    1  UNL1        0.0749
     11 C         138.6952  141.4838  160.7166 C.ar    1  UNL1        0.0021
     12 C         137.8509  140.5969  161.5831 C.ar    1  UNL1       -0.0204
     13 C         137.3157  141.1113  162.8865 C.ar    1  UNL1        0.0021
     14 C         137.6246  142.5126  163.3235 C.ar    1  UNL1        0.0749
     15 O         138.9107  145.8924  161.8740 O.2     1  UNL1        0.0415
     16 N         138.7777  144.8008  162.8940 N.pl3   1  UNL1        0.0809
     17 O         138.9537  145.1103  164.3512 O.co2   1  UNL1       -0.5760
     18 C         142.7394  138.6824  165.6152 C.3     1  UNL1        0.0769
     19 C         142.9745  139.9905  166.3105 C.3     1  UNL1        0.0437
     20 C         142.4234  140.2178  167.6871 C.ar    1  UNL1       -0.0191
     21 C         142.5875  139.1660  168.7437 C.ar    1  UNL1       -0.0025
     22 C         142.0364  139.3933  170.1203 C.ar    1  UNL1        0.0238
     23 C         141.3212  140.6725  170.4399 C.ar    1  UNL1        0.1431
     24 N         140.6766  141.1747  171.6978 N.ar    1  UNL1       -0.0483
     25 O         140.1142  142.5369  171.4185 O.2     1  UNL1       -0.2415
     26 N         140.4111  142.8766  169.9879 N.ar    1  UNL1       -0.0483
     27 C         141.1571  141.7243  169.3832 C.ar    1  UNL1        0.1428
     28 C         141.7083  141.4970  168.0067 C.ar    1  UNL1        0.0199
@<TRIPOS>UNITY_ATOM_ATTR
16 1
charge 1
17 1
charge -1
@<TRIPOS>BOND
     1    15    16    2
     2    16    17    1
     3    16     9    1
     4     9    10   ar
     5    10    11   ar
     6    11    12   ar
     7    12     8    1
     8     8     7    1
     9     7     1    1
    10     1     2    1
    11     2     3    1
    12     3     4    1
    13     4    18    1
    14    18    19    1
    15    19    20    1
    16    20    21   ar
    17    21    22   ar
    18    22    23   ar
    19    23    24   ar
    20    24    25   ar
    21    25    26   ar
    22    26    27   ar
    23    27    28   ar
    24     4     5    1
    25     5     6    1
    26    12    13   ar
    27    13    14   ar
    28    14     9   ar
    29     6     1    1
    30    28    20   ar
    31    27    23   ar
@<TRIPOS>MOLECULE
*****
 28 31 0 0 0
SMALL
GASTEIGER

@<TRIPOS>ATOM
      1 N         144.3145  140.0870  163.8482 N.3     1  UNL1       -0.2700
      2 C         143.7335  139.3752  162.6626 C.3     1  UNL1        0.0897
      3 C         142.6480  138.3582  162.8563 C.3     1  UNL1        0.0897
      4 N         142.1435  138.0531  164.2356 N.3     1  UNL1       -0.2700
      5 C         142.7246  138.7650  165.4212 C.3     1  UNL1        0.0897
      6 C         143.8101  139.7819  165.2274 C.3     1  UNL1        0.0897
      7 C         145.4001  141.1040  163.6545 C.3     1  UNL1        0.0769
      8 C         145.1305  142.5519  163.9387 C.3     1  UNL1        0.0437
      9 C         141.5139  144.5577  162.1649 C.ar    1  UNL1        0.2900
     10 C         142.4859  143.8412  161.2752 C.ar    1  UNL1        0.0749
     11 C         143.6916  143.1726  161.8664 C.ar    1  UNL1        0.0021
     12 C         143.9250  143.2205  163.3474 C.ar    1  UNL1       -0.0204
     13 C         142.9528  143.9370  164.2371 C.ar    1  UNL1        0.0021
     14 C         141.7473  144.6056  163.6459 C.ar    1  UNL1        0.0749
     15 O         139.4166  144.4703  160.6340 O.2     1  UNL1        0.0415
     16 N         140.3083  145.2263  161.5737 N.pl3   1  UNL1        0.0809
     17 O         139.9944  146.6511  161.9223 O.co2   1  UNL1       -0.5760
     18 C         141.0580  137.0361  164.4292 C.3     1  UNL1        0.0769
     19 C         139.6723  137.4787  164.7949 C.3     1  UNL1        0.0437
     20 C         139.0691  138.6808  164.1305 C.ar    1  UNL1       -0.0191
     21 C         138.5013  138.5670  162.7468 C.ar    1  UNL1       -0.0025
     22 C         137.8982  139.7690  162.0824 C.ar    1  UNL1        0.0238
     23 C         137.8628  141.0848  162.8018 C.ar    1  UNL1        0.1431
     24 N         137.3367  142.4321  162.4044 N.ar    1  UNL1       -0.0483
     25 O         137.5794  143.3786  163.5425 O.2     1  UNL1       -0.2415
     26 N         138.2554  142.6162  164.6433 N.ar    1  UNL1       -0.0483
     27 C         138.4306  141.1985  164.1855 C.ar    1  UNL1        0.1428
     28 C         139.0337  139.9965  164.8499 C.ar    1  UNL1        0.0199
@<TRIPOS>UNITY_ATOM_ATTR
16 1
charge 1
17 1
charge -1
@<TRIPOS>BOND
     1    15    16    2
     2    16    17    1
     3    16     9    1
     4     9    10   ar
     5    10    11   ar
     6    11    12   ar
     7    12     8    1
     8     8     7    1
     9     7     1    1
    10     1     2    1
    11     2     3    1
    12     3     4    1
    13     4    18    1
    14    18    19    1
    15    19    20    1
    16    20    21   ar
    17    21    22   ar
    18    22    23   ar
    19    23    24   ar
    20    24    25   ar
    21    25    26   ar
    22    26    27   ar
    23    27    28   ar
    24     4     5    1
    25     5     6    1
    26    12    13   ar
    27    13    14   ar
    28    14     9   ar
    29     6     1    1
    30    28    20   ar
    31    27    23   ar
@<TRIPOS>MOLECULE
*****
 28 31 0 0 0
SMALL
GASTEIGER

@<TRIPOS>ATOM
      1 N         141.5736  137.9967  164.6295 N.3     1  UNL1       -0.2700
      2 C         140.2227  138.2646  165.2237 C.3     1  UNL1        0.0897
      3 C         139.0097  138.3022  164.3421 C.3     1  UNL1        0.0897
      4 N         139.1476  138.0719  162.8663 N.3     1  UNL1       -0.2700
      5 C         140.4987  137.8040  162.2721 C.3     1  UNL1        0.0897
      6 C         141.7116  137.7664  163.1538 C.3     1  UNL1        0.0897
      7 C         142.7866  137.9591  165.5112 C.3     1  UNL1        0.0769
      8 C         143.4169  139.2390  165.9746 C.3     1  UNL1        0.0437
      9 C         143.6364  142.7732  163.1978 C.ar    1  UNL1        0.2900
     10 C         142.6603  142.7739  164.3367 C.ar    1  UNL1        0.0749
     11 C         142.5871  141.5958  165.2624 C.ar    1  UNL1        0.0021
     12 C         143.4900  140.4170  165.0490 C.ar    1  UNL1       -0.0204
     13 C         144.4661  140.4165  163.9100 C.ar    1  UNL1        0.0021
     14 C         144.5392  141.5946  162.9844 C.ar    1  UNL1        0.0749
     15 O         144.2514  145.2601  162.7653 O.2     1  UNL1        0.0415
     16 N         143.7096  143.9513  162.2721 N.pl3   1  UNL1        0.0809
     17 O         143.2409  143.8205  160.8533 O.co2   1  UNL1       -0.5760
     18 C         137.9347  138.1095  161.9847 C.3     1  UNL1        0.0769
     19 C         137.7560  139.2288  161.0023 C.3     1  UNL1        0.0437
     20 C         137.9200  140.6516  161.4484 C.ar    1  UNL1       -0.0191
     21 C         137.3762  141.0888  162.7761 C.ar    1  UNL1       -0.0025
     22 C         137.5403  142.5115  163.2222 C.ar    1  UNL1        0.0238
     23 C         138.2483  143.4970  162.3404 C.ar    1  UNL1        0.1431
     24 N         138.5590  144.9545  162.5115 N.ar    1  UNL1       -0.0483
     25 O         139.2950  145.4180  161.2895 O.2     1  UNL1       -0.2415
     26 N         139.4390  144.2471  160.3631 N.ar    1  UNL1       -0.0483
     27 C         138.7921  143.0598  161.0126 C.ar    1  UNL1        0.1428
     28 C         138.6280  141.6371  160.5666 C.ar    1  UNL1        0.0199
@<TRIPOS>UNITY_ATOM_ATTR
16 1
charge 1
17 1
charge -1
@<TRIPOS>BOND
     1    15    16    2
     2    16    17    1
     3    16     9    1
     4     9    10   ar
     5    10    11   ar
     6    11    12   ar
     7    12     8    1
     8     8     7    1
     9     7     1    1
    10     1     2    1
    11     2     3    1
    12     3     4    1
    13     4    18    1
    14    18    19    1
    15    19    20    1
    16    20    21   ar
    17    21    22   ar
    18    22    23   ar
    19    23    24   ar
    20    24    25   ar
    21    25    26   ar
    22    26    27   ar
    23    27    28   ar
    24     4     5    1
    25     5     6    1
    26    12    13   ar
    27    13    14   ar
    28    14     9   ar
    29     6     1    1
    30    28    20   ar
    31    27    23   ar
@<TRIPOS>MOLECULE
*****
 28 31 0 0 0
SMALL
GASTEIGER

@<TRIPOS>ATOM
      1 N         139.6080  138.0622  162.3401 N.3     1  UNL1       -0.2700
      2 C         141.0329  138.2311  161.9029 C.3     1  UNL1        0.0897
      3 C         142.1312  138.2681  162.9238 C.3     1  UNL1        0.0897
      4 N         141.8047  138.1362  164.3819 N.3     1  UNL1       -0.2700
      5 C         140.3797  137.9673  164.8191 C.3     1  UNL1        0.0897
      6 C         139.2815  137.9303  163.7981 C.3     1  UNL1        0.0897
      7 C         138.5096  138.0252  161.3191 C.3     1  UNL1        0.0769
      8 C         137.4393  139.0760  161.3307 C.3     1  UNL1        0.0437
      9 C         138.4492  143.3034  162.4965 C.ar    1  UNL1        0.2900
     10 C         137.7784  142.3936  163.4824 C.ar    1  UNL1        0.0749
     11 C         137.4417  140.9844  163.0938 C.ar    1  UNL1        0.0021
     12 C         137.7760  140.4852  161.7193 C.ar    1  UNL1       -0.0204
     13 C         138.4468  141.3951  160.7335 C.ar    1  UNL1        0.0021
     14 C         138.7835  142.8043  161.1221 C.ar    1  UNL1        0.0749
     15 O         138.8705  145.7803  161.8351 O.2     1  UNL1        0.0415
     16 N         138.7859  144.7126  162.8851 N.pl3   1  UNL1        0.0809
     17 O         139.0381  145.0539  164.3238 O.co2   1  UNL1       -0.5760
     18 C         142.9031  138.1731  165.4028 C.3     1  UNL1        0.0769
     19 C         143.4078  139.4899  165.9139 C.3     1  UNL1        0.0437
     20 C         143.7647  140.5819  164.9493 C.ar    1  UNL1       -0.0191
     21 C         145.1025  140.5759  164.2711 C.ar    1  UNL1       -0.0025
     22 C         145.4594  141.6678  163.3065 C.ar    1  UNL1        0.0238
     23 C         144.4783  142.7657  163.0202 C.ar    1  UNL1        0.1431
     24 N         144.5489  143.9663  162.1238 N.ar    1  UNL1       -0.0483
     25 O         143.2547  144.7143  162.2480 O.2     1  UNL1       -0.2415
     26 N         142.3841  143.9760  163.2212 N.ar    1  UNL1       -0.0483
     27 C         143.1404  142.7717  163.6984 C.ar    1  UNL1        0.1428
     28 C         142.7836  141.6798  164.6630 C.ar    1  UNL1        0.0199
@<TRIPOS>UNITY_ATOM_ATTR
16 1
charge 1
17 1
charge -1
@<TRIPOS>BOND
     1    15    16    2
     2    16    17    1
     3    16     9    1
     4     9    10   ar
     5    10    11   ar
     6    11    12   ar
     7    12     8    1
     8     8     7    1
     9     7     1    1
    10     1     2    1
    11     2     3    1
    12     3     4    1
    13     4    18    1
    14    18    19    1
    15    19    20    1
    16    20    21   ar
    17    21    22   ar
    18    22    23   ar
    19    23    24   ar
    20    24    25   ar
    21    25    26   ar
    22    26    27   ar
    23    27    28   ar
    24     4     5    1
    25     5     6    1
    26    12    13   ar
    27    13    14   ar
    28    14     9   ar
    29     6     1    1
    30    28    20   ar
    31    27    23   ar
