@<TRIPOS>MOLECULE
*****
 34 38 0 0 0
SMALL
GASTEIGER

@<TRIPOS>ATOM
      1 N         139.1961  138.4929  162.5401 N.3     1  UNL1       -0.2702
      2 C         138.8327  139.1787  163.8237 C.3     1  UNL1        0.0747
      3 C         139.8527  139.3176  164.9147 C.3     1  UNL1        0.0463
      4 C         141.2361  138.7707  164.7221 C.3     1  UNL1        0.1136
      5 C         141.5995  138.0850  163.4385 C.3     1  UNL1        0.0463
      6 C         140.5795  137.9461  162.3475 C.3     1  UNL1        0.0747
      7 C         140.8727  139.4565  166.0057 C.3     1  UNL1        0.1194
      8 N         141.8927  139.5954  167.0967 N.pl3   1  UNL1       -0.2869
      9 C         143.2761  139.0485  166.9041 C.3     1  UNL1        0.1243
     10 C         143.6396  138.3628  165.6205 C.3     1  UNL1        0.1634
     11 O         142.6195  138.2239  164.5294 O.3     1  UNL1       -0.3549
     12 C         141.5293  140.2812  168.3804 C.ar    1  UNL1        0.1518
     13 C         140.2955  139.8693  169.1275 C.ar    1  UNL1        0.0410
     14 C         139.9321  140.5550  170.4111 C.ar    1  UNL1        0.0651
     15 C         140.8025  141.6526  170.9476 C.ar    1  UNL1        0.2766
     16 O         140.4391  142.3383  172.2313 O.2     1  UNL1       -0.2655
     17 N         142.0363  142.0644  170.2005 N.ar    1  UNL1       -0.2134
     18 C         142.9067  143.1620  170.7370 C.3     1  UNL1        0.1571
     19 N         142.3997  141.3787  168.9169 N.ar    1  UNL1       -0.1517
     20 C         138.1761  138.3540  161.4491 C.3     1  UNL1        0.1063
     21 C         137.6290  139.5765  160.7737 C.3     1  UNL1        0.1483
     22 O         136.2219  139.5800  160.2541 O.3     1  UNL1       -0.3786
     23 H         136.0288  140.4402  159.8495 H       1  UNL1        0.2108
     24 C         137.3173  141.8840  162.6654 C.3     1  UNL1        0.0306
     25 C         138.3332  141.9493  161.5638 C.ar    1  UNL1       -0.0238
     26 C         138.4891  140.7956  160.6179 C.ar    1  UNL1        0.0015
     27 C         139.5050  140.8609  159.5163 C.ar    1  UNL1       -0.0020
     28 C         140.3651  142.0799  159.3605 C.ar    1  UNL1        0.0060
     29 C         140.2092  143.2335  160.3063 C.ar    1  UNL1        0.0748
     30 C         139.1933  143.1682  161.4080 C.ar    1  UNL1        0.0233
     31 C         139.2661  144.4509  162.1822 C.3     1  UNL1        0.2352
     32 O         140.3269  145.3090  161.5591 O.3     1  UNL1       -0.4404
     33 C         140.9098  144.5566  160.3998 C.2     1  UNL1        0.3413
     34 O         142.0017  145.0420  159.4930 O.2     1  UNL1       -0.2449
@<TRIPOS>BOND
     1    24    25    1
     2    25    26   ar
     3    26    21    1
     4    21    22    1
     5    21    20    1
     6    20     1    1
     7     1     2    1
     8     2     3    1
     9     3     4    1
    10     4     5    1
    11     5     6    1
    12     4     7    1
    13     7     8    1
    14     8    12    1
    15    12    13   ar
    16    13    14   ar
    17    14    15   ar
    18    15    16    2
    19    15    17   ar
    20    17    18    1
    21    17    19   ar
    22     8     9    1
    23     9    10    1
    24    10    11    1
    25    26    27   ar
    26    27    28   ar
    27    28    29   ar
    28    29    30   ar
    29    30    31    1
    30    31    32    1
    31    32    33    1
    32    33    34    2
    33    30    25   ar
    34     6     1    1
    35    19    12   ar
    36    33    29    1
    37    11     4    1
    38    22    23    1
@<TRIPOS>MOLECULE
*****
 34 38 0 0 0
SMALL
GASTEIGER

@<TRIPOS>ATOM
      1 N         142.0765  138.0422  162.3524 N.3     1  UNL1       -0.2702
      2 C         142.7311  138.9670  163.3353 C.3     1  UNL1        0.0747
      3 C         142.0040  139.3715  164.5834 C.3     1  UNL1        0.0463
      4 C         140.6223  138.8512  164.8485 C.3     1  UNL1        0.1136
      5 C         139.9678  137.9264  163.8655 C.3     1  UNL1        0.0463
      6 C         140.6948  137.5219  162.6175 C.3     1  UNL1        0.0747
      7 C         141.2769  139.7760  165.8315 C.3     1  UNL1        0.1194
      8 N         140.5498  140.1805  167.0796 N.pl3   1  UNL1       -0.2869
      9 C         139.1682  139.6602  167.3447 C.3     1  UNL1        0.1243
     10 C         138.5136  138.7354  166.3617 C.3     1  UNL1        0.1634
     11 O         139.2407  138.3309  165.1136 O.3     1  UNL1       -0.3549
     12 C         141.2044  141.1054  168.0626 C.ar    1  UNL1        0.1518
     13 C         142.6114  140.8466  168.5136 C.ar    1  UNL1        0.0410
     14 C         143.2660  141.7714  169.4966 C.ar    1  UNL1        0.0651
     15 C         142.5136  142.9549  170.0285 C.ar    1  UNL1        0.2766
     16 O         143.1681  143.8798  171.0116 O.2     1  UNL1       -0.2655
     17 N         141.1066  143.2137  169.5775 N.ar    1  UNL1       -0.2134
     18 C         140.3541  144.3973  170.1096 C.3     1  UNL1        0.1571
     19 N         140.4520  142.2889  168.5946 N.ar    1  UNL1       -0.1517
     20 C         142.8036  137.6377  161.1042 C.3     1  UNL1        0.1063
     21 C         142.6643  138.4577  159.8560 C.3     1  UNL1        0.1483
     22 O         143.2307  137.9548  158.5612 O.3     1  UNL1       -0.3786
     23 H         143.0554  138.6007  157.8591 H       1  UNL1        0.2108
     24 C         139.7349  138.6180  159.2290 C.3     1  UNL1        0.0306
     25 C         140.4940  139.8607  159.5889 C.ar    1  UNL1       -0.0238
     26 C         141.9586  139.7805  159.9024 C.ar    1  UNL1        0.0015
     27 C         142.7177  141.0232  160.2624 C.ar    1  UNL1       -0.0020
     28 C         142.0121  142.3461  160.3088 C.ar    1  UNL1        0.0060
     29 C         140.5474  142.4262  159.9953 C.ar    1  UNL1        0.0748
     30 C         139.7884  141.1835  159.6354 C.ar    1  UNL1        0.0233
     31 C         138.3621  141.5699  159.3775 C.3     1  UNL1        0.2352
     32 O         138.2397  143.0514  159.5781 O.3     1  UNL1       -0.4404
     33 C         139.5903  143.5806  159.9599 C.2     1  UNL1        0.3413
     34 O         139.9250  145.0128  160.2546 O.2     1  UNL1       -0.2449
@<TRIPOS>BOND
     1    24    25    1
     2    25    26   ar
     3    26    21    1
     4    21    22    1
     5    21    20    1
     6    20     1    1
     7     1     2    1
     8     2     3    1
     9     3     4    1
    10     4     5    1
    11     5     6    1
    12     4     7    1
    13     7     8    1
    14     8    12    1
    15    12    13   ar
    16    13    14   ar
    17    14    15   ar
    18    15    16    2
    19    15    17   ar
    20    17    18    1
    21    17    19   ar
    22     8     9    1
    23     9    10    1
    24    10    11    1
    25    26    27   ar
    26    27    28   ar
    27    28    29   ar
    28    29    30   ar
    29    30    31    1
    30    31    32    1
    31    32    33    1
    32    33    34    2
    33    30    25   ar
    34     6     1    1
    35    19    12   ar
    36    33    29    1
    37    11     4    1
    38    22    23    1
@<TRIPOS>MOLECULE
*****
 34 38 0 0 0
SMALL
GASTEIGER

@<TRIPOS>ATOM
      1 N         142.0145  138.1008  162.6040 N.3     1  UNL1       -0.2702
      2 C         142.5605  138.8090  163.8082 C.3     1  UNL1        0.0747
      3 C         141.6775  139.0617  164.9941 C.3     1  UNL1        0.0463
      4 C         140.2484  138.6062  164.9757 C.3     1  UNL1        0.1136
      5 C         139.7024  137.8980  163.7715 C.3     1  UNL1        0.0463
      6 C         140.5855  137.6453  162.5856 C.3     1  UNL1        0.0747
      7 C         140.7944  139.3145  166.1800 C.3     1  UNL1        0.1194
      8 N         139.9114  139.5672  167.3659 N.pl3   1  UNL1       -0.2869
      9 C         138.4823  139.1117  167.3475 C.3     1  UNL1        0.1243
     10 C         137.9363  138.4035  166.1433 C.3     1  UNL1        0.1634
     11 O         138.8194  138.1507  164.9573 O.3     1  UNL1       -0.3549
     12 C         140.4574  140.2754  168.5703 C.ar    1  UNL1        0.1518
     13 C         139.6477  140.3440  169.8311 C.ar    1  UNL1        0.0410
     14 C         140.1936  141.0522  171.0354 C.ar    1  UNL1        0.0651
     15 C         141.5493  141.6918  170.9789 C.ar    1  UNL1        0.2766
     16 O         142.0953  142.4000  172.1832 O.2     1  UNL1       -0.2655
     17 N         142.3589  141.6231  169.7180 N.ar    1  UNL1       -0.2134
     18 C         143.7146  142.2628  169.6615 C.3     1  UNL1        0.1571
     19 N         141.8130  140.9150  168.5137 N.ar    1  UNL1       -0.1517
     20 C         142.8976  137.8481  161.4180 C.3     1  UNL1        0.1063
     21 C         143.3296  138.9907  160.5476 C.3     1  UNL1        0.1483
     22 O         143.7542  138.7360  159.1316 O.3     1  UNL1       -0.3786
     23 H         144.0004  139.5752  158.7120 H       1  UNL1        0.2108
     24 C         140.8875  140.7142  160.2910 C.3     1  UNL1        0.0306
     25 C         142.1160  141.2497  160.9647 C.ar    1  UNL1       -0.0238
     26 C         143.3370  140.3880  161.0930 C.ar    1  UNL1        0.0015
     27 C         144.5655  140.9236  161.7668 C.ar    1  UNL1       -0.0020
     28 C         144.5730  142.3208  162.3122 C.ar    1  UNL1        0.0060
     29 C         143.3520  143.1825  162.1839 C.ar    1  UNL1        0.0748
     30 C         142.1235  142.6470  161.5102 C.ar    1  UNL1        0.0233
     31 C         141.0775  143.7219  161.5311 C.3     1  UNL1        0.2352
     32 O         141.6595  144.9218  162.2177 O.3     1  UNL1       -0.4404
     33 C         143.0652  144.5884  162.6212 C.2     1  UNL1        0.3413
     34 O         144.0171  145.5008  163.3364 O.2     1  UNL1       -0.2449
@<TRIPOS>BOND
     1    24    25    1
     2    25    26   ar
     3    26    21    1
     4    21    22    1
     5    21    20    1
     6    20     1    1
     7     1     2    1
     8     2     3    1
     9     3     4    1
    10     4     5    1
    11     5     6    1
    12     4     7    1
    13     7     8    1
    14     8    12    1
    15    12    13   ar
    16    13    14   ar
    17    14    15   ar
    18    15    16    2
    19    15    17   ar
    20    17    18    1
    21    17    19   ar
    22     8     9    1
    23     9    10    1
    24    10    11    1
    25    26    27   ar
    26    27    28   ar
    27    28    29   ar
    28    29    30   ar
    29    30    31    1
    30    31    32    1
    31    32    33    1
    32    33    34    2
    33    30    25   ar
    34     6     1    1
    35    19    12   ar
    36    33    29    1
    37    11     4    1
    38    22    23    1
@<TRIPOS>MOLECULE
*****
 34 38 0 0 0
SMALL
GASTEIGER

@<TRIPOS>ATOM
      1 N         139.3626  137.7277  163.9016 N.3     1  UNL1       -0.2702
      2 C         138.5186  138.0830  162.7136 C.3     1  UNL1        0.0747
      3 C         139.1510  138.2305  161.3615 C.3     1  UNL1        0.0463
      4 C         140.6275  138.0228  161.1974 C.3     1  UNL1        0.1136
      5 C         141.4715  137.6675  162.3854 C.3     1  UNL1        0.0463
      6 C         140.8391  137.5199  163.7375 C.3     1  UNL1        0.0747
      7 C         139.7834  138.3781  160.0093 C.3     1  UNL1        0.1194
      8 N         140.4158  138.5256  158.6572 N.pl3   1  UNL1       -0.2869
      9 C         141.8923  138.3179  158.4931 C.3     1  UNL1        0.1243
     10 C         142.7363  137.9626  159.6810 C.3     1  UNL1        0.1634
     11 O         142.1039  137.8150  161.0332 O.3     1  UNL1       -0.3549
     12 C         139.5718  138.8810  157.4692 C.ar    1  UNL1        0.1518
     13 C         139.7677  138.1612  156.1678 C.ar    1  UNL1        0.0410
     14 C         138.9237  138.5165  154.9798 C.ar    1  UNL1        0.0651
     15 C         137.8839  139.5915  155.0931 C.ar    1  UNL1        0.2766
     16 O         137.0398  139.9468  153.9050 O.2     1  UNL1       -0.2655
     17 N         137.6879  140.3113  156.3945 N.ar    1  UNL1       -0.2134
     18 C         136.6480  141.3864  156.5078 C.3     1  UNL1        0.1571
     19 N         138.5319  139.9560  157.5825 N.ar    1  UNL1       -0.1517
     20 C         138.7302  137.5801  165.2538 C.3     1  UNL1        0.1063
     21 C         138.4897  138.7912  166.1055 C.3     1  UNL1        0.1483
     22 O         137.9063  138.6384  167.4789 O.3     1  UNL1       -0.3786
     23 H         137.8166  139.5118  167.8911 H       1  UNL1        0.2108
     24 C         141.2230  139.9343  166.5771 C.3     1  UNL1        0.0306
     25 C         140.1991  140.7267  165.8195 C.ar    1  UNL1       -0.0238
     26 C         138.8325  140.1551  165.5837 C.ar    1  UNL1        0.0015
     27 C         137.8087  140.9475  164.8261 C.ar    1  UNL1       -0.0020
     28 C         138.1514  142.3114  164.3044 C.ar    1  UNL1        0.0060
     29 C         139.5180  142.8829  164.5402 C.ar    1  UNL1        0.0748
     30 C         140.5419  142.0906  165.2978 C.ar    1  UNL1        0.0233
     31 C         141.7969  142.9085  165.3749 C.3     1  UNL1        0.2352
     32 O         141.5487  144.2064  164.6650 O.3     1  UNL1       -0.4404
     33 C         140.1403  144.1905  164.1491 C.2     1  UNL1        0.3413
     34 O         139.4715  145.2894  163.3776 O.2     1  UNL1       -0.2449
@<TRIPOS>BOND
     1    24    25    1
     2    25    26   ar
     3    26    21    1
     4    21    22    1
     5    21    20    1
     6    20     1    1
     7     1     2    1
     8     2     3    1
     9     3     4    1
    10     4     5    1
    11     5     6    1
    12     4     7    1
    13     7     8    1
    14     8    12    1
    15    12    13   ar
    16    13    14   ar
    17    14    15   ar
    18    15    16    2
    19    15    17   ar
    20    17    18    1
    21    17    19   ar
    22     8     9    1
    23     9    10    1
    24    10    11    1
    25    26    27   ar
    26    27    28   ar
    27    28    29   ar
    28    29    30   ar
    29    30    31    1
    30    31    32    1
    31    32    33    1
    32    33    34    2
    33    30    25   ar
    34     6     1    1
    35    19    12   ar
    36    33    29    1
    37    11     4    1
    38    22    23    1
@<TRIPOS>MOLECULE
*****
 34 38 0 0 0
SMALL
GASTEIGER

@<TRIPOS>ATOM
      1 N         142.7153  139.5536  162.8245 N.3     1  UNL1       -0.2702
      2 C         142.3172  138.2902  162.1208 C.3     1  UNL1        0.0747
      3 C         142.5118  138.1638  160.6389 C.3     1  UNL1        0.0463
      4 C         143.1046  139.3009  159.8606 C.3     1  UNL1        0.1136
      5 C         143.5027  140.5643  160.5643 C.3     1  UNL1        0.0463
      6 C         143.3081  140.6907  162.0462 C.3     1  UNL1        0.0747
      7 C         142.7064  138.0374  159.1569 C.3     1  UNL1        0.1194
      8 N         142.9010  137.9111  157.6750 N.pl3   1  UNL1       -0.2869
      9 C         143.4938  139.0482  156.8967 C.3     1  UNL1        0.1243
     10 C         143.8919  140.3116  157.6004 C.3     1  UNL1        0.1634
     11 O         143.6973  140.4380  159.0824 O.3     1  UNL1       -0.3549
     12 C         142.5028  136.6476  156.9712 C.ar    1  UNL1        0.1518
     13 C         141.4680  136.6877  155.8861 C.ar    1  UNL1        0.0410
     14 C         141.0698  135.4244  155.1823 C.ar    1  UNL1        0.0651
     15 C         141.7064  134.1209  155.5638 C.ar    1  UNL1        0.2766
     16 O         141.3083  132.8574  154.8600 O.2     1  UNL1       -0.2655
     17 N         142.7412  134.0807  156.6489 N.ar    1  UNL1       -0.2134
     18 C         143.3779  132.7771  157.0304 C.3     1  UNL1        0.1571
     19 N         143.1394  135.3441  157.3527 N.ar    1  UNL1       -0.1517
     20 C         142.5207  139.6800  164.3064 C.3     1  UNL1        0.1063
     21 C         141.5115  140.6471  164.8506 C.3     1  UNL1        0.1483
     22 O         140.5637  141.3446  163.9204 O.3     1  UNL1       -0.3786
     23 H         139.9825  141.9303  164.4304 H       1  UNL1        0.2108
     24 C         139.1773  139.6649  166.4590 C.3     1  UNL1        0.0306
     25 C         140.2829  140.4255  167.1291 C.ar    1  UNL1       -0.0238
     26 C         141.4499  140.9167  166.3249 C.ar    1  UNL1        0.0015
     27 C         142.5555  141.6773  166.9950 C.ar    1  UNL1       -0.0020
     28 C         142.4940  141.9469  168.4693 C.ar    1  UNL1        0.0060
     29 C         141.3270  141.4558  169.2734 C.ar    1  UNL1        0.0748
     30 C         140.2214  140.6951  168.6033 C.ar    1  UNL1        0.0233
     31 C         139.2051  140.3384  169.6474 C.3     1  UNL1        0.2352
     32 O         139.6826  140.8787  170.9627 O.3     1  UNL1       -0.4404
     33 C         140.9940  141.5692  170.7316 C.2     1  UNL1        0.3413
     34 O         141.8263  142.2532  171.7754 O.2     1  UNL1       -0.2449
@<TRIPOS>BOND
     1    24    25    1
     2    25    26   ar
     3    26    21    1
     4    21    22    1
     5    21    20    1
     6    20     1    1
     7     1     2    1
     8     2     3    1
     9     3     4    1
    10     4     5    1
    11     5     6    1
    12     4     7    1
    13     7     8    1
    14     8    12    1
    15    12    13   ar
    16    13    14   ar
    17    14    15   ar
    18    15    16    2
    19    15    17   ar
    20    17    18    1
    21    17    19   ar
    22     8     9    1
    23     9    10    1
    24    10    11    1
    25    26    27   ar
    26    27    28   ar
    27    28    29   ar
    28    29    30   ar
    29    30    31    1
    30    31    32    1
    31    32    33    1
    32    33    34    2
    33    30    25   ar
    34     6     1    1
    35    19    12   ar
    36    33    29    1
    37    11     4    1
    38    22    23    1
@<TRIPOS>MOLECULE
*****
 34 38 0 0 0
SMALL
GASTEIGER

@<TRIPOS>ATOM
      1 N         142.9669  138.3798  157.6539 N.3     1  UNL1       -0.2702
      2 C         142.7346  137.9630  159.0759 C.3     1  UNL1        0.0747
      3 C         143.0966  138.8903  160.1979 C.3     1  UNL1        0.0463
      4 C         143.6909  140.2344  159.8979 C.3     1  UNL1        0.1136
      5 C         143.9232  140.6513  158.4759 C.3     1  UNL1        0.0463
      6 C         143.5612  139.7240  157.3539 C.3     1  UNL1        0.0747
      7 C         143.4586  139.8176  161.3201 C.3     1  UNL1        0.1194
      8 N         143.8206  140.7449  162.4421 N.pl3   1  UNL1       -0.2869
      9 C         144.4149  142.0890  162.1421 C.3     1  UNL1        0.1243
     10 C         144.6472  142.5059  160.7201 C.3     1  UNL1        0.1634
     11 O         144.2852  141.5786  159.5980 O.3     1  UNL1       -0.3549
     12 C         143.5883  140.3280  163.8642 C.ar    1  UNL1        0.1518
     13 C         143.6142  138.8744  164.2334 C.ar    1  UNL1        0.0410
     14 C         143.3819  138.4575  165.6555 C.ar    1  UNL1        0.0651
     15 C         143.1237  139.4943  166.7083 C.ar    1  UNL1        0.2766
     16 O         142.8913  139.0774  168.1304 O.2     1  UNL1       -0.2655
     17 N         143.0978  140.9479  166.3391 N.ar    1  UNL1       -0.2134
     18 C         142.8395  141.9847  167.3920 C.3     1  UNL1        0.1571
     19 N         143.3301  141.3648  164.9170 N.ar    1  UNL1       -0.1517
     20 C         142.6049  137.4525  156.5317 C.3     1  UNL1        0.1063
     21 C         143.6320  136.5115  155.9754 C.3     1  UNL1        0.1483
     22 O         144.9094  137.0494  155.4018 O.3     1  UNL1       -0.3786
     23 H         145.4582  136.3136  155.0884 H       1  UNL1        0.2108
     24 C         142.2787  135.1919  153.6457 C.3     1  UNL1        0.0306
     25 C         142.7051  134.3728  154.8278 C.ar    1  UNL1       -0.0238
     26 C         143.3818  135.0326  155.9926 C.ar    1  UNL1        0.0015
     27 C         143.8082  134.2135  157.1747 C.ar    1  UNL1       -0.0020
     28 C         143.5579  132.7347  157.1919 C.ar    1  UNL1        0.0060
     29 C         142.8813  132.0749  156.0271 C.ar    1  UNL1        0.0748
     30 C         142.4549  132.8940  154.8450 C.ar    1  UNL1        0.0233
     31 C         141.8143  131.9727  153.8496 C.3     1  UNL1        0.2352
     32 O         141.8447  130.5843  154.4164 O.3     1  UNL1       -0.4404
     33 C         142.5042  130.6475  155.7622 C.2     1  UNL1        0.3413
     34 O         142.7444  129.4869  156.6817 O.2     1  UNL1       -0.2449
@<TRIPOS>BOND
     1    24    25    1
     2    25    26   ar
     3    26    21    1
     4    21    22    1
     5    21    20    1
     6    20     1    1
     7     1     2    1
     8     2     3    1
     9     3     4    1
    10     4     5    1
    11     5     6    1
    12     4     7    1
    13     7     8    1
    14     8    12    1
    15    12    13   ar
    16    13    14   ar
    17    14    15   ar
    18    15    16    2
    19    15    17   ar
    20    17    18    1
    21    17    19   ar
    22     8     9    1
    23     9    10    1
    24    10    11    1
    25    26    27   ar
    26    27    28   ar
    27    28    29   ar
    28    29    30   ar
    29    30    31    1
    30    31    32    1
    31    32    33    1
    32    33    34    2
    33    30    25   ar
    34     6     1    1
    35    19    12   ar
    36    33    29    1
    37    11     4    1
    38    22    23    1
@<TRIPOS>MOLECULE
*****
 34 38 0 0 0
SMALL
GASTEIGER

@<TRIPOS>ATOM
      1 N         138.6768  140.9192  163.9032 N.3     1  UNL1       -0.2702
      2 C         139.3722  140.7925  162.5803 C.3     1  UNL1        0.0747
      3 C         139.7459  142.0233  161.8086 C.3     1  UNL1        0.0463
      4 C         139.4242  143.3807  162.3599 C.3     1  UNL1        0.1136
      5 C         138.7288  143.5073  163.6829 C.3     1  UNL1        0.0463
      6 C         138.3551  142.2766  164.4546 C.3     1  UNL1        0.0747
      7 C         140.1196  143.2541  161.0368 C.3     1  UNL1        0.1194
      8 N         140.4933  144.4848  160.2651 N.pl3   1  UNL1       -0.2869
      9 C         140.1716  145.8422  160.8164 C.3     1  UNL1        0.1243
     10 C         139.4762  145.9689  162.1394 C.3     1  UNL1        0.1634
     11 O         139.1025  144.7381  162.9112 O.3     1  UNL1       -0.3549
     12 C         141.1887  144.3582  158.9421 C.ar    1  UNL1        0.1518
     13 C         140.7731  145.2247  157.7904 C.ar    1  UNL1        0.0410
     14 C         141.4684  145.0981  156.4673 C.ar    1  UNL1        0.0651
     15 C         142.5794  144.1051  156.2960 C.ar    1  UNL1        0.2766
     16 O         143.2748  143.9784  154.9729 O.2     1  UNL1       -0.2655
     17 N         142.9951  143.2386  157.4477 N.ar    1  UNL1       -0.2134
     18 C         144.1062  142.2454  157.2763 C.3     1  UNL1        0.1571
     19 N         142.2997  143.3651  158.7707 N.ar    1  UNL1       -0.1517
     20 C         138.3031  139.6884  164.6750 C.3     1  UNL1        0.1063
     21 C         139.2926  139.0611  165.6116 C.3     1  UNL1        0.1483
     22 O         139.8841  137.7207  165.2902 O.3     1  UNL1       -0.3786
     23 H         140.5001  137.4620  165.9934 H       1  UNL1        0.2108
     24 C         141.7890  140.7240  165.6676 C.3     1  UNL1        0.0306
     25 C         140.9389  140.6058  166.8978 C.ar    1  UNL1       -0.0238
     26 C         139.6907  139.7743  166.8698 C.ar    1  UNL1        0.0015
     27 C         138.8406  139.6561  168.1000 C.ar    1  UNL1       -0.0020
     28 C         139.2387  140.3692  169.3581 C.ar    1  UNL1        0.0060
     29 C         140.4868  141.2006  169.3861 C.ar    1  UNL1        0.0748
     30 C         141.3369  141.3189  168.1559 C.ar    1  UNL1        0.0233
     31 C         142.5036  142.2036  168.4820 C.3     1  UNL1        0.2352
     32 O         142.3745  142.6321  169.9136 O.3     1  UNL1       -0.4404
     33 C         141.1281  142.0122  170.4724 C.2     1  UNL1        0.3413
     34 O         140.6133  142.1753  171.8718 O.2     1  UNL1       -0.2449
@<TRIPOS>BOND
     1    24    25    1
     2    25    26   ar
     3    26    21    1
     4    21    22    1
     5    21    20    1
     6    20     1    1
     7     1     2    1
     8     2     3    1
     9     3     4    1
    10     4     5    1
    11     5     6    1
    12     4     7    1
    13     7     8    1
    14     8    12    1
    15    12    13   ar
    16    13    14   ar
    17    14    15   ar
    18    15    16    2
    19    15    17   ar
    20    17    18    1
    21    17    19   ar
    22     8     9    1
    23     9    10    1
    24    10    11    1
    25    26    27   ar
    26    27    28   ar
    27    28    29   ar
    28    29    30   ar
    29    30    31    1
    30    31    32    1
    31    32    33    1
    32    33    34    2
    33    30    25   ar
    34     6     1    1
    35    19    12   ar
    36    33    29    1
    37    11     4    1
    38    22    23    1
@<TRIPOS>MOLECULE
*****
 34 38 0 0 0
SMALL
GASTEIGER

@<TRIPOS>ATOM
      1 N         143.4488  139.4858  163.4842 N.3     1  UNL1       -0.2702
      2 C         142.9972  138.3041  162.6782 C.3     1  UNL1        0.0747
      3 C         143.0058  138.3710  161.1798 C.3     1  UNL1        0.0463
      4 C         143.4659  139.6195  160.4873 C.3     1  UNL1        0.1136
      5 C         143.9176  140.8012  161.2934 C.3     1  UNL1        0.0463
      6 C         143.9090  140.7343  162.7918 C.3     1  UNL1        0.0747
      7 C         143.0143  138.4379  159.6812 C.3     1  UNL1        0.1194
      8 N         143.0229  138.5048  158.1828 N.pl3   1  UNL1       -0.2869
      9 C         143.4830  139.7533  157.4904 C.3     1  UNL1        0.1243
     10 C         143.9347  140.9349  158.2964 C.3     1  UNL1        0.1634
     11 O         143.9261  140.8681  159.7949 O.3     1  UNL1       -0.3549
     12 C         142.5712  137.3231  157.3767 C.ar    1  UNL1        0.1518
     13 C         141.4399  137.4681  156.4024 C.ar    1  UNL1        0.0410
     14 C         140.9883  136.2865  155.5963 C.ar    1  UNL1        0.0651
     15 C         141.6679  134.9599  155.7645 C.ar    1  UNL1        0.2766
     16 O         141.2163  133.7783  154.9583 O.2     1  UNL1       -0.2655
     17 N         142.7992  134.8150  156.7387 N.ar    1  UNL1       -0.2134
     18 C         143.4789  133.4883  156.9068 C.3     1  UNL1        0.1571
     19 N         143.2509  135.9965  157.5448 N.ar    1  UNL1       -0.1517
     20 C         143.4403  139.4189  164.9828 C.3     1  UNL1        0.1063
     21 C         142.2198  139.8417  165.7454 C.3     1  UNL1        0.1483
     22 O         142.0361  139.4050  167.1686 O.3     1  UNL1       -0.3786
     23 H         141.2019  139.7622  167.5114 H       1  UNL1        0.2108
     24 C         139.7900  138.5835  164.5154 C.3     1  UNL1        0.0306
     25 C         139.9682  140.0722  164.4699 C.ar    1  UNL1       -0.0238
     26 C         141.1830  140.7013  165.0849 C.ar    1  UNL1        0.0015
     27 C         141.3612  142.1900  165.0394 C.ar    1  UNL1       -0.0020
     28 C         140.3245  143.0496  164.3790 C.ar    1  UNL1        0.0060
     29 C         139.1096  142.4205  163.7639 C.ar    1  UNL1        0.0748
     30 C         138.9315  140.9318  163.8094 C.ar    1  UNL1        0.0233
     31 C         137.6400  140.5983  163.1231 C.3     1  UNL1        0.2352
     32 O         137.0200  141.8809  162.6534 O.3     1  UNL1       -0.4404
     33 C         137.9283  143.0070  163.0495 C.2     1  UNL1        0.3413
     34 O         137.6960  144.4640  162.7787 O.2     1  UNL1       -0.2449
@<TRIPOS>BOND
     1    24    25    1
     2    25    26   ar
     3    26    21    1
     4    21    22    1
     5    21    20    1
     6    20     1    1
     7     1     2    1
     8     2     3    1
     9     3     4    1
    10     4     5    1
    11     5     6    1
    12     4     7    1
    13     7     8    1
    14     8    12    1
    15    12    13   ar
    16    13    14   ar
    17    14    15   ar
    18    15    16    2
    19    15    17   ar
    20    17    18    1
    21    17    19   ar
    22     8     9    1
    23     9    10    1
    24    10    11    1
    25    26    27   ar
    26    27    28   ar
    27    28    29   ar
    28    29    30   ar
    29    30    31    1
    30    31    32    1
    31    32    33    1
    32    33    34    2
    33    30    25   ar
    34     6     1    1
    35    19    12   ar
    36    33    29    1
    37    11     4    1
    38    22    23    1
@<TRIPOS>MOLECULE
*****
 34 38 0 0 0
SMALL
GASTEIGER

@<TRIPOS>ATOM
      1 N         142.5969  140.1879  161.1866 N.3     1  UNL1       -0.2702
      2 C         142.6018  138.7029  160.9749 C.3     1  UNL1        0.0747
      3 C         142.6227  138.1439  159.5831 C.3     1  UNL1        0.0463
      4 C         142.6385  139.0699  158.4031 C.3     1  UNL1        0.1136
      5 C         142.6335  140.5548  158.6149 C.3     1  UNL1        0.0463
      6 C         142.6127  141.1138  160.0066 C.3     1  UNL1        0.0747
      7 C         142.6435  137.5848  158.1913 C.3     1  UNL1        0.1194
      8 N         142.6644  137.0258  156.7995 N.pl3   1  UNL1       -0.2869
      9 C         142.6802  137.9518  155.6195 C.3     1  UNL1        0.1243
     10 C         142.6752  139.4367  155.8313 C.3     1  UNL1        0.1634
     11 O         142.6544  139.9958  157.2231 O.3     1  UNL1       -0.3549
     12 C         142.6694  135.5408  156.5877 C.ar    1  UNL1        0.1518
     13 C         141.6487  134.9080  155.6890 C.ar    1  UNL1        0.0410
     14 C         141.6536  133.4231  155.4772 C.ar    1  UNL1        0.0651
     15 C         142.6793  132.5710  156.1641 C.ar    1  UNL1        0.2766
     16 O         142.6843  131.0859  155.9523 O.2     1  UNL1       -0.2655
     17 N         143.7000  133.2038  157.0628 N.ar    1  UNL1       -0.2134
     18 C         144.7257  132.3516  157.7497 C.3     1  UNL1        0.1571
     19 N         143.6950  134.6887  157.2746 N.ar    1  UNL1       -0.1517
     20 C         142.5760  140.7470  162.5784 C.3     1  UNL1        0.1063
     21 C         141.3411  141.4223  163.0970 C.3     1  UNL1        0.1483
     22 O         140.9780  142.7951  162.6138 O.3     1  UNL1       -0.3786
     23 H         140.1582  143.0833  163.0448 H       1  UNL1        0.2108
     24 C         141.6476  142.0141  166.0220 C.3     1  UNL1        0.0306
     25 C         140.6225  141.0207  165.5612 C.ar    1  UNL1       -0.0238
     26 C         140.4693  140.7248  164.0987 C.ar    1  UNL1        0.0015
     27 C         139.4442  139.7314  163.6379 C.ar    1  UNL1       -0.0020
     28 C         138.5724  139.0338  164.6396 C.ar    1  UNL1        0.0060
     29 C         138.7256  139.3298  166.1020 C.ar    1  UNL1        0.0748
     30 C         139.7507  140.3232  166.5629 C.ar    1  UNL1        0.0233
     31 C         139.6729  140.4096  168.0584 C.3     1  UNL1        0.2352
     32 O         138.5997  139.4697  168.5218 O.3     1  UNL1       -0.4404
     33 C         138.0143  138.8023  167.3127 C.2     1  UNL1        0.3413
     34 O         136.9112  137.7858  167.3141 O.2     1  UNL1       -0.2449
@<TRIPOS>BOND
     1    24    25    1
     2    25    26   ar
     3    26    21    1
     4    21    22    1
     5    21    20    1
     6    20     1    1
     7     1     2    1
     8     2     3    1
     9     3     4    1
    10     4     5    1
    11     5     6    1
    12     4     7    1
    13     7     8    1
    14     8    12    1
    15    12    13   ar
    16    13    14   ar
    17    14    15   ar
    18    15    16    2
    19    15    17   ar
    20    17    18    1
    21    17    19   ar
    22     8     9    1
    23     9    10    1
    24    10    11    1
    25    26    27   ar
    26    27    28   ar
    27    28    29   ar
    28    29    30   ar
    29    30    31    1
    30    31    32    1
    31    32    33    1
    32    33    34    2
    33    30    25   ar
    34     6     1    1
    35    19    12   ar
    36    33    29    1
    37    11     4    1
    38    22    23    1
