@<TRIPOS>MOLECULE
*****
 38 43 0 0 0
SMALL
GASTEIGER

@<TRIPOS>ATOM
      1 C         142.1903  137.9300  164.1141 C.3     1  UNL1        0.0932
      2 C         143.0037  138.5786  165.1948 C.3     1  UNL1        0.0286
      3 C         144.1354  139.4947  164.8343 C.3     1  UNL1        0.0193
      4 C         144.4537  139.7623  163.3931 C.3     1  UNL1        0.0700
      5 C         143.6404  139.1137  162.3124 C.3     1  UNL1        0.0193
      6 C         142.5087  138.1976  162.6729 C.3     1  UNL1        0.0286
      7 C         143.8241  139.2530  163.5416 C.3     1  UNL1        0.1562
      8 O         142.8007  138.4245  163.8676 O.3     1  UNL1       -0.3572
      9 N         145.5854  140.6784  163.0326 N.3     1  UNL1       -0.2926
     10 H         145.6390  140.6935  162.0141 H       1  UNL1        0.1236
     11 C         145.5668  142.1080  163.4864 C.3     1  UNL1        0.1152
     12 C         144.3354  142.9415  163.2893 C.ar    1  UNL1        0.0765
     13 C         143.5708  143.4427  164.4784 C.ar    1  UNL1        0.0193
     14 C         142.3394  144.2762  164.2813 C.ar    1  UNL1        0.0411
     15 C         141.8725  144.6085  162.8951 C.ar    1  UNL1        0.1708
     16 C         142.6371  144.1072  161.7060 C.ar    1  UNL1        0.1682
     17 N         143.8686  143.2737  161.9031 N.ar    1  UNL1       -0.2304
     18 N         142.1703  144.4395  160.3197 N.am    1  UNL1       -0.2639
     19 C         140.9389  145.2730  160.1226 C.2     1  UNL1        0.2718
     20 O         140.4721  145.6053  158.7364 O.2     1  UNL1       -0.2707
     21 C         140.1743  145.7743  161.3118 C.3     1  UNL1        0.2898
     22 O         140.6411  145.4420  162.6980 O.3     1  UNL1       -0.4628
     23 H         142.6722  144.1105  159.5392 H       1  UNL1        0.1565
     24 C         141.0586  137.0139  164.4747 C.3     1  UNL1        0.0319
     25 C         139.7159  137.5828  164.8259 C.3     1  UNL1        0.0304
     26 C         139.6869  141.9617  165.8620 C.ar    1  UNL1        0.2247
     27 C         139.0255  142.9456  164.9430 C.ar    1  UNL1        0.0549
     28 C         138.3738  142.4698  163.6786 C.ar    1  UNL1        0.0019
     29 C         137.7124  143.4536  162.7595 C.3     1  UNL1        0.0328
     30 C         138.3834  141.0100  163.3331 C.ar    1  UNL1        0.0948
     31 N         137.7317  140.5342  162.0687 N.ar    1  UNL1       -0.2427
     32 C         137.7414  139.0746  161.7234 C.ar    1  UNL1        0.0986
     33 C         138.4028  138.0908  162.6424 C.ar    1  UNL1        0.0179
     34 C         139.0545  138.5666  163.9068 C.ar    1  UNL1       -0.0013
     35 C         139.0448  140.0262  164.2522 C.ar    1  UNL1        0.0977
     36 N         139.6966  140.5021  165.5167 N.ar    1  UNL1       -0.2105
     37 C         141.7214  141.9744  167.4779 C.3     1  UNL1        0.2542
     38 O         140.3387  142.4376  167.1265 O.3     1  UNL1       -0.4561
@<TRIPOS>BOND
     1    37    38    1
     2    38    26    1
     3    26    27   ar
     4    27    28   ar
     5    28    29    1
     6    28    30   ar
     7    30    31   ar
     8    31    32   ar
     9    32    33   ar
    10    33    34   ar
    11    34    25    1
    12    25    24    1
    13    24     1    1
    14     1     2    1
    15     2     3    1
    16     3     4    1
    17     4     9    1
    18     9    11    1
    19    11    12    1
    20    12    13   ar
    21    13    14   ar
    22    14    15   ar
    23    15    16   ar
    24    16    17   ar
    25    16    18    1
    26    18    19   am
    27    19    20    2
    28    19    21    1
    29    21    22    1
    30     4     5    1
    31     5     6    1
    32     4     7    1
    33     7     8    1
    34    34    35   ar
    35    35    36   ar
    36    36    26   ar
    37    35    30   ar
    38     6     1    1
    39     8     1    1
    40    17    12   ar
    41    22    15    1
    42     9    10    1
    43    18    23    1
@<TRIPOS>MOLECULE
*****
 38 43 0 0 0
SMALL
GASTEIGER

@<TRIPOS>ATOM
      1 C         141.9052  138.2042  164.2394 C.3     1  UNL1        0.0932
      2 C         141.9390  138.7533  162.8440 C.3     1  UNL1        0.0286
      3 C         143.1190  139.5561  162.3823 C.3     1  UNL1        0.0193
      4 C         144.2651  139.8099  163.3160 C.3     1  UNL1        0.0700
      5 C         144.2314  139.2607  164.7115 C.3     1  UNL1        0.0193
      6 C         143.0514  138.4579  165.1732 C.3     1  UNL1        0.0286
      7 C         143.6403  139.3643  163.6142 C.3     1  UNL1        0.1562
      8 O         142.5733  138.6383  164.0317 O.3     1  UNL1       -0.3572
      9 N         145.4450  140.6127  162.8543 N.3     1  UNL1       -0.2926
     10 H         145.4790  140.5287  161.8383 H       1  UNL1        0.1236
     11 C         145.5262  142.0767  163.1706 C.3     1  UNL1        0.1152
     12 C         144.3087  142.9422  163.0337 C.ar    1  UNL1        0.0765
     13 C         143.6279  143.4780  164.2581 C.ar    1  UNL1        0.0193
     14 C         142.4104  144.3435  164.1211 C.ar    1  UNL1        0.0411
     15 C         141.8739  144.6732  162.7597 C.ar    1  UNL1        0.1708
     16 C         142.5547  144.1373  161.5353 C.ar    1  UNL1        0.1682
     17 N         143.7722  143.2718  161.6723 N.ar    1  UNL1       -0.2304
     18 N         142.0182  144.4670  160.1739 N.am    1  UNL1       -0.2639
     19 C         140.8007  145.3325  160.0369 C.2     1  UNL1        0.2718
     20 O         140.2642  145.6621  158.6755 O.2     1  UNL1       -0.2707
     21 C         140.1199  145.8683  161.2614 C.3     1  UNL1        0.2898
     22 O         140.6564  145.5387  162.6228 O.3     1  UNL1       -0.4628
     23 H         142.4650  144.1153  159.3702 H       1  UNL1        0.1565
     24 C         140.7253  137.4013  164.7011 C.3     1  UNL1        0.0319
     25 C         139.5271  138.0938  165.2798 C.3     1  UNL1        0.0304
     26 C         137.9381  141.5462  162.8703 C.ar    1  UNL1        0.2247
     27 C         138.0614  142.9462  163.3944 C.ar    1  UNL1        0.0549
     28 C         138.7143  143.1955  164.7215 C.ar    1  UNL1        0.0019
     29 C         138.8376  144.5956  165.2456 C.3     1  UNL1        0.0328
     30 C         139.2441  142.0447  165.5248 C.ar    1  UNL1        0.0948
     31 N         139.8970  142.2940  166.8519 N.ar    1  UNL1       -0.2427
     32 C         140.4267  141.1432  167.6551 C.ar    1  UNL1        0.0986
     33 C         140.3034  139.7431  167.1310 C.ar    1  UNL1        0.0179
     34 C         139.6504  139.4938  165.8039 C.ar    1  UNL1       -0.0013
     35 C         139.1208  140.6446  165.0007 C.ar    1  UNL1        0.0977
     36 N         138.4677  140.3954  163.6735 N.ar    1  UNL1       -0.2105
     37 C         137.5572  140.0221  160.8010 C.3     1  UNL1        0.2542
     38 O         137.2850  141.2969  161.5431 O.3     1  UNL1       -0.4561
@<TRIPOS>BOND
     1    37    38    1
     2    38    26    1
     3    26    27   ar
     4    27    28   ar
     5    28    29    1
     6    28    30   ar
     7    30    31   ar
     8    31    32   ar
     9    32    33   ar
    10    33    34   ar
    11    34    25    1
    12    25    24    1
    13    24     1    1
    14     1     2    1
    15     2     3    1
    16     3     4    1
    17     4     9    1
    18     9    11    1
    19    11    12    1
    20    12    13   ar
    21    13    14   ar
    22    14    15   ar
    23    15    16   ar
    24    16    17   ar
    25    16    18    1
    26    18    19   am
    27    19    20    2
    28    19    21    1
    29    21    22    1
    30     4     5    1
    31     5     6    1
    32     4     7    1
    33     7     8    1
    34    34    35   ar
    35    35    36   ar
    36    36    26   ar
    37    35    30   ar
    38     6     1    1
    39     8     1    1
    40    17    12   ar
    41    22    15    1
    42     9    10    1
    43    18    23    1
@<TRIPOS>MOLECULE
*****
 38 43 0 0 0
SMALL
GASTEIGER

@<TRIPOS>ATOM
      1 C         142.6988  144.7959  163.4130 C.3     1  UNL1        0.0932
      2 C         142.9021  144.1624  162.0686 C.3     1  UNL1        0.0286
      3 C         141.7182  143.8266  161.2110 C.3     1  UNL1        0.0193
      4 C         140.3310  144.1243  161.6976 C.3     1  UNL1        0.0700
      5 C         140.1276  144.7578  163.0421 C.3     1  UNL1        0.0193
      6 C         141.3115  145.0936  163.8997 C.3     1  UNL1        0.0286
      7 C         140.9487  144.3264  162.2031 C.3     1  UNL1        0.1562
      8 O         142.0192  144.6300  162.9787 O.3     1  UNL1       -0.3572
      9 N         139.1471  143.7884  160.8400 N.3     1  UNL1       -0.2926
     10 H         139.5005  143.2538  160.0465 H       1  UNL1        0.1236
     11 C         138.0029  143.0064  161.4138 C.3     1  UNL1        0.1152
     12 C         138.2552  141.6835  162.0744 C.ar    1  UNL1        0.0765
     13 C         138.8631  140.5579  161.2911 C.ar    1  UNL1        0.0193
     14 C         139.1153  139.2350  161.9517 C.ar    1  UNL1        0.0411
     15 C         138.7597  139.0377  163.3955 C.ar    1  UNL1        0.1708
     16 C         138.1518  140.1633  164.1787 C.ar    1  UNL1        0.1682
     17 N         137.8995  141.4862  163.5181 N.ar    1  UNL1       -0.2304
     18 N         137.7961  139.9660  165.6226 N.am    1  UNL1       -0.2639
     19 C         138.0483  138.6431  166.2831 C.2     1  UNL1        0.2718
     20 O         137.6927  138.4458  167.7269 O.2     1  UNL1       -0.2707
     21 C         138.6562  137.5175  165.4998 C.3     1  UNL1        0.2898
     22 O         139.0119  137.7148  164.0560 O.3     1  UNL1       -0.4628
     23 H         137.3971  140.7048  166.1366 H       1  UNL1        0.1565
     24 C         143.8827  145.1318  164.2706 C.3     1  UNL1        0.0319
     25 C         144.4100  144.1244  165.2489 C.3     1  UNL1        0.0304
     26 C         141.2786  141.3917  166.9742 C.ar    1  UNL1        0.2247
     27 C         141.2794  139.9336  166.6222 C.ar    1  UNL1        0.0549
     28 C         142.3239  139.3863  165.6951 C.ar    1  UNL1        0.0019
     29 C         142.3246  137.9282  165.3431 C.3     1  UNL1        0.0328
     30 C         143.3677  140.2972  165.1200 C.ar    1  UNL1        0.0948
     31 N         144.4122  139.7500  164.1929 N.ar    1  UNL1       -0.2427
     32 C         145.4560  140.6609  163.6178 C.ar    1  UNL1        0.0986
     33 C         145.4553  142.1190  163.9698 C.ar    1  UNL1        0.0179
     34 C         144.4108  142.6662  164.8969 C.ar    1  UNL1       -0.0013
     35 C         143.3670  141.7553  165.4720 C.ar    1  UNL1        0.0977
     36 N         142.3224  142.3026  166.3991 N.ar    1  UNL1       -0.2105
     37 C         140.5920  143.0153  168.8827 C.3     1  UNL1        0.2542
     38 O         140.2340  141.9389  167.9013 O.3     1  UNL1       -0.4561
@<TRIPOS>BOND
     1    37    38    1
     2    38    26    1
     3    26    27   ar
     4    27    28   ar
     5    28    29    1
     6    28    30   ar
     7    30    31   ar
     8    31    32   ar
     9    32    33   ar
    10    33    34   ar
    11    34    25    1
    12    25    24    1
    13    24     1    1
    14     1     2    1
    15     2     3    1
    16     3     4    1
    17     4     9    1
    18     9    11    1
    19    11    12    1
    20    12    13   ar
    21    13    14   ar
    22    14    15   ar
    23    15    16   ar
    24    16    17   ar
    25    16    18    1
    26    18    19   am
    27    19    20    2
    28    19    21    1
    29    21    22    1
    30     4     5    1
    31     5     6    1
    32     4     7    1
    33     7     8    1
    34    34    35   ar
    35    35    36   ar
    36    36    26   ar
    37    35    30   ar
    38     6     1    1
    39     8     1    1
    40    17    12   ar
    41    22    15    1
    42     9    10    1
    43    18    23    1
@<TRIPOS>MOLECULE
*****
 38 43 0 0 0
SMALL
GASTEIGER

@<TRIPOS>ATOM
      1 C         144.4886  142.8885  163.1736 C.3     1  UNL1        0.0932
      2 C         144.0934  143.7734  164.3185 C.3     1  UNL1        0.0286
      3 C         142.9818  144.7663  164.1500 C.3     1  UNL1        0.0193
      4 C         142.2654  144.8745  162.8366 C.3     1  UNL1        0.0700
      5 C         142.6606  143.9896  161.6916 C.3     1  UNL1        0.0193
      6 C         143.7722  142.9966  161.8601 C.3     1  UNL1        0.0286
      7 C         142.8682  144.3154  162.8811 C.3     1  UNL1        0.1562
      8 O         143.8734  143.4174  163.0335 O.3     1  UNL1       -0.3572
      9 N         141.1538  145.8674  162.6681 N.3     1  UNL1       -0.2926
     10 H         141.1218  146.1083  161.6774 H       1  UNL1        0.1236
     11 C         139.7555  145.5033  163.0706 C.3     1  UNL1        0.1152
     12 C         139.2289  144.1269  162.7911 C.ar    1  UNL1        0.0765
     13 C         138.8606  143.2197  163.9274 C.ar    1  UNL1        0.0193
     14 C         138.3341  141.8433  163.6479 C.ar    1  UNL1        0.0411
     15 C         138.1758  141.3740  162.2321 C.ar    1  UNL1        0.1708
     16 C         138.5441  142.2812  161.0957 C.ar    1  UNL1        0.1682
     17 N         139.0707  143.6576  161.3752 N.ar    1  UNL1       -0.2304
     18 N         138.3858  141.8119  159.6798 N.am    1  UNL1       -0.2639
     19 C         137.8593  140.4354  159.4003 C.2     1  UNL1        0.2718
     20 O         137.7010  139.9662  157.9844 O.2     1  UNL1       -0.2707
     21 C         137.4910  139.5283  160.5367 C.3     1  UNL1        0.2898
     22 O         137.6492  139.9975  161.9526 O.3     1  UNL1       -0.4628
     23 H         138.6276  142.4073  158.9339 H       1  UNL1        0.1565
     24 C         145.6002  141.8956  163.3421 C.3     1  UNL1        0.0319
     25 C         145.3515  140.6076  164.0695 C.3     1  UNL1        0.0304
     26 C         141.7664  140.9432  166.7685 C.ar    1  UNL1        0.2247
     27 C         140.5310  140.1439  166.4773 C.ar    1  UNL1        0.0549
     28 C         140.4905  139.2327  165.2866 C.ar    1  UNL1        0.0019
     29 C         139.2551  138.4334  164.9954 C.3     1  UNL1        0.0328
     30 C         141.6856  139.1208  164.3868 C.ar    1  UNL1        0.0948
     31 N         141.6451  138.2096  163.1960 N.ar    1  UNL1       -0.2427
     32 C         142.8401  138.0977  162.2964 C.ar    1  UNL1        0.0986
     33 C         144.0756  138.8971  162.5876 C.ar    1  UNL1        0.0179
     34 C         144.1160  139.8083  163.7784 C.ar    1  UNL1       -0.0013
     35 C         142.9210  139.9201  164.6780 C.ar    1  UNL1        0.0977
     36 N         142.9614  140.8314  165.8689 N.ar    1  UNL1       -0.2105
     37 C         143.1149  142.1573  168.6280 C.3     1  UNL1        0.2542
     38 O         141.8068  141.8545  167.9594 O.3     1  UNL1       -0.4561
@<TRIPOS>BOND
     1    37    38    1
     2    38    26    1
     3    26    27   ar
     4    27    28   ar
     5    28    29    1
     6    28    30   ar
     7    30    31   ar
     8    31    32   ar
     9    32    33   ar
    10    33    34   ar
    11    34    25    1
    12    25    24    1
    13    24     1    1
    14     1     2    1
    15     2     3    1
    16     3     4    1
    17     4     9    1
    18     9    11    1
    19    11    12    1
    20    12    13   ar
    21    13    14   ar
    22    14    15   ar
    23    15    16   ar
    24    16    17   ar
    25    16    18    1
    26    18    19   am
    27    19    20    2
    28    19    21    1
    29    21    22    1
    30     4     5    1
    31     5     6    1
    32     4     7    1
    33     7     8    1
    34    34    35   ar
    35    35    36   ar
    36    36    26   ar
    37    35    30   ar
    38     6     1    1
    39     8     1    1
    40    17    12   ar
    41    22    15    1
    42     9    10    1
    43    18    23    1
@<TRIPOS>MOLECULE
*****
 38 43 0 0 0
SMALL
GASTEIGER

@<TRIPOS>ATOM
      1 C         141.9549  138.0257  164.2609 C.3     1  UNL1        0.0932
      2 C         142.2293  138.3299  162.8179 C.3     1  UNL1        0.0286
      3 C         143.4161  139.1658  162.4402 C.3     1  UNL1        0.0193
      4 C         144.3285  139.6976  163.5054 C.3     1  UNL1        0.0700
      5 C         144.0541  139.3935  164.9484 C.3     1  UNL1        0.0193
      6 C         142.8673  138.5575  165.3262 C.3     1  UNL1        0.0286
      7 C         143.6907  139.2440  163.7611 C.3     1  UNL1        0.1562
      8 O         142.6175  138.4881  164.1027 O.3     1  UNL1       -0.3572
      9 N         145.5153  140.5335  163.1276 N.3     1  UNL1       -0.2926
     10 H         145.8479  140.1836  162.2291 H       1  UNL1        0.1236
     11 C         145.3715  142.0199  162.9870 C.3     1  UNL1        0.1152
     12 C         144.3991  142.5890  161.9968 C.ar    1  UNL1        0.0765
     13 C         144.4927  142.2073  160.5492 C.ar    1  UNL1        0.0193
     14 C         143.5203  142.7765  159.5591 C.ar    1  UNL1        0.0411
     15 C         142.4541  143.7273  160.0165 C.ar    1  UNL1        0.1708
     16 C         142.3605  144.1090  161.4640 C.ar    1  UNL1        0.1682
     17 N         143.3329  143.5399  162.4542 N.ar    1  UNL1       -0.2304
     18 N         141.2943  145.0598  161.9215 N.am    1  UNL1       -0.2639
     19 C         140.3218  145.6289  160.9313 C.2     1  UNL1        0.2718
     20 O         139.2557  146.5798  161.3887 O.2     1  UNL1       -0.2707
     21 C         140.4155  145.2472  159.4837 C.3     1  UNL1        0.2898
     22 O         141.4817  144.2964  159.0263 O.3     1  UNL1       -0.4628
     23 H         141.2328  145.3104  162.8716 H       1  UNL1        0.1565
     24 C         140.7681  137.1898  164.6387 C.3     1  UNL1        0.0319
     25 C         139.4923  137.8503  165.0700 C.3     1  UNL1        0.0304
     26 C         140.6319  141.5746  167.3240 C.ar    1  UNL1        0.2247
     27 C         140.2639  142.9230  166.7794 C.ar    1  UNL1        0.0549
     28 C         139.5162  143.0299  165.4835 C.ar    1  UNL1        0.0019
     29 C         139.1482  144.3782  164.9390 C.3     1  UNL1        0.0328
     30 C         139.1363  141.7884  164.7322 C.ar    1  UNL1        0.0948
     31 N         138.3885  141.8953  163.4363 N.ar    1  UNL1       -0.2427
     32 C         138.0086  140.6539  162.6850 C.ar    1  UNL1        0.0986
     33 C         138.3766  139.3055  163.2296 C.ar    1  UNL1        0.0179
     34 C         139.1243  139.1986  164.5255 C.ar    1  UNL1       -0.0013
     35 C         139.5042  140.4401  165.2767 C.ar    1  UNL1        0.0977
     36 N         140.2520  140.3332  166.5727 N.ar    1  UNL1       -0.2105
     37 C         142.6783  140.7191  168.6769 C.3     1  UNL1        0.2542
     38 O         141.3797  141.4677  168.6199 O.3     1  UNL1       -0.4561
@<TRIPOS>BOND
     1    37    38    1
     2    38    26    1
     3    26    27   ar
     4    27    28   ar
     5    28    29    1
     6    28    30   ar
     7    30    31   ar
     8    31    32   ar
     9    32    33   ar
    10    33    34   ar
    11    34    25    1
    12    25    24    1
    13    24     1    1
    14     1     2    1
    15     2     3    1
    16     3     4    1
    17     4     9    1
    18     9    11    1
    19    11    12    1
    20    12    13   ar
    21    13    14   ar
    22    14    15   ar
    23    15    16   ar
    24    16    17   ar
    25    16    18    1
    26    18    19   am
    27    19    20    2
    28    19    21    1
    29    21    22    1
    30     4     5    1
    31     5     6    1
    32     4     7    1
    33     7     8    1
    34    34    35   ar
    35    35    36   ar
    36    36    26   ar
    37    35    30   ar
    38     6     1    1
    39     8     1    1
    40    17    12   ar
    41    22    15    1
    42     9    10    1
    43    18    23    1
@<TRIPOS>MOLECULE
*****
 38 43 0 0 0
SMALL
GASTEIGER

@<TRIPOS>ATOM
      1 C         144.2308  139.6575  163.7517 C.3     1  UNL1        0.0932
      2 C         143.3310  139.2354  164.8751 C.3     1  UNL1        0.0286
      3 C         142.1289  138.3835  164.5937 C.3     1  UNL1        0.0193
      4 C         141.8266  137.9536  163.1888 C.3     1  UNL1        0.0700
      5 C         142.7264  138.3757  162.0652 C.3     1  UNL1        0.0193
      6 C         143.9285  139.2277  162.3467 C.3     1  UNL1        0.0286
      7 C         142.4968  138.4202  163.2938 C.3     1  UNL1        0.1562
      8 O         143.5838  139.1906  163.5483 O.3     1  UNL1       -0.3572
      9 N         140.6245  137.1017  162.9073 N.3     1  UNL1       -0.2926
     10 H         140.7421  136.2408  163.4416 H       1  UNL1        0.1236
     11 C         139.2504  137.6182  163.2154 C.3     1  UNL1        0.1152
     12 C         138.8963  139.0415  162.9010 C.ar    1  UNL1        0.0765
     13 C         138.4895  139.4231  161.5085 C.ar    1  UNL1        0.0193
     14 C         138.1353  140.8464  161.1941 C.ar    1  UNL1        0.0411
     15 C         138.1879  141.8881  162.2721 C.ar    1  UNL1        0.1708
     16 C         138.5947  141.5065  163.6645 C.ar    1  UNL1        0.1682
     17 N         138.9489  140.0832  163.9789 N.ar    1  UNL1       -0.2304
     18 N         138.6474  142.5481  164.7426 N.am    1  UNL1       -0.2639
     19 C         138.2932  143.9714  164.4282 C.2     1  UNL1        0.2718
     20 O         138.3458  145.0131  165.5062 O.2     1  UNL1       -0.2707
     21 C         137.8864  144.3530  163.0357 C.3     1  UNL1        0.2898
     22 O         137.8338  143.3113  161.9577 O.3     1  UNL1       -0.4628
     23 H         138.9143  142.2977  165.6565 H       1  UNL1        0.1565
     24 C         145.4328  140.5095  164.0331 C.3     1  UNL1        0.0319
     25 C         145.4634  141.9378  163.5762 C.3     1  UNL1        0.0304
     26 C         143.9600  142.7817  159.4196 C.ar    1  UNL1        0.2247
     27 C         142.6772  143.5343  159.2244 C.ar    1  UNL1        0.0549
     28 C         141.8956  144.0056  160.4147 C.ar    1  UNL1        0.0019
     29 C         140.6128  144.7582  160.2194 C.3     1  UNL1        0.0328
     30 C         142.3967  143.7243  161.8003 C.ar    1  UNL1        0.0948
     31 N         141.6151  144.1956  162.9906 N.ar    1  UNL1       -0.2427
     32 C         142.1162  143.9143  164.3761 C.ar    1  UNL1        0.0986
     33 C         143.3990  143.1617  164.5713 C.ar    1  UNL1        0.0179
     34 C         144.1806  142.6904  163.3810 C.ar    1  UNL1       -0.0013
     35 C         143.6795  142.9717  161.9955 C.ar    1  UNL1        0.0977
     36 N         144.4611  142.5004  160.8051 N.ar    1  UNL1       -0.2105
     37 C         144.5415  140.9200  157.7032 C.3     1  UNL1        0.2542
     38 O         144.7417  142.3104  158.2292 O.3     1  UNL1       -0.4561
@<TRIPOS>BOND
     1    37    38    1
     2    38    26    1
     3    26    27   ar
     4    27    28   ar
     5    28    29    1
     6    28    30   ar
     7    30    31   ar
     8    31    32   ar
     9    32    33   ar
    10    33    34   ar
    11    34    25    1
    12    25    24    1
    13    24     1    1
    14     1     2    1
    15     2     3    1
    16     3     4    1
    17     4     9    1
    18     9    11    1
    19    11    12    1
    20    12    13   ar
    21    13    14   ar
    22    14    15   ar
    23    15    16   ar
    24    16    17   ar
    25    16    18    1
    26    18    19   am
    27    19    20    2
    28    19    21    1
    29    21    22    1
    30     4     5    1
    31     5     6    1
    32     4     7    1
    33     7     8    1
    34    34    35   ar
    35    35    36   ar
    36    36    26   ar
    37    35    30   ar
    38     6     1    1
    39     8     1    1
    40    17    12   ar
    41    22    15    1
    42     9    10    1
    43    18    23    1
@<TRIPOS>MOLECULE
*****
 38 43 0 0 0
SMALL
GASTEIGER

@<TRIPOS>ATOM
      1 C         137.8528  142.7292  163.6367 C.3     1  UNL1        0.0932
      2 C         137.7866  142.5472  162.1493 C.3     1  UNL1        0.0286
      3 C         137.8322  141.1688  161.5595 C.3     1  UNL1        0.0193
      4 C         137.9438  139.9723  162.4572 C.3     1  UNL1        0.0700
      5 C         138.0100  140.1542  163.9447 C.3     1  UNL1        0.0193
      6 C         137.9645  141.5326  164.5345 C.3     1  UNL1        0.0286
      7 C         137.9223  140.7078  162.8267 C.3     1  UNL1        0.1562
      8 O         137.8812  141.9542  163.3600 O.3     1  UNL1       -0.3572
      9 N         137.9894  138.5938  161.8674 N.3     1  UNL1       -0.2926
     10 H         137.2372  138.5425  161.1804 H       1  UNL1        0.1236
     11 C         139.2342  138.1114  161.1836 C.3     1  UNL1        0.1152
     12 C         140.5767  138.3678  161.8014 C.ar    1  UNL1        0.0765
     13 C         141.7011  138.8951  160.9602 C.ar    1  UNL1        0.0193
     14 C         143.0437  139.1516  161.5780 C.ar    1  UNL1        0.0411
     15 C         143.2619  138.8807  163.0371 C.ar    1  UNL1        0.1708
     16 C         142.1375  138.3534  163.8783 C.ar    1  UNL1        0.1682
     17 N         140.7949  138.0969  163.2605 N.ar    1  UNL1       -0.2304
     18 N         142.3557  138.0824  165.3375 N.am    1  UNL1       -0.2639
     19 C         143.6983  138.3389  165.9554 C.2     1  UNL1        0.2718
     20 O         143.9165  138.0680  167.4144 O.2     1  UNL1       -0.2707
     21 C         144.8227  138.8662  165.1141 C.3     1  UNL1        0.2898
     22 O         144.6045  139.1371  163.6550 O.3     1  UNL1       -0.4628
     23 H         141.6177  137.7364  165.8897 H       1  UNL1        0.1565
     24 C         137.8072  144.1076  164.2265 C.3     1  UNL1        0.0319
     25 C         139.0826  144.8435  164.5125 C.3     1  UNL1        0.0304
     26 C         142.5347  142.3324  165.9364 C.ar    1  UNL1        0.2247
     27 C         143.7306  142.1318  165.0534 C.ar    1  UNL1        0.0549
     28 C         143.7758  142.7682  163.6959 C.ar    1  UNL1        0.0019
     29 C         144.9717  142.5676  162.8130 C.3     1  UNL1        0.0328
     30 C         142.6251  143.6053  163.2212 C.ar    1  UNL1        0.0948
     31 N         142.6703  144.2417  161.8637 N.ar    1  UNL1       -0.2427
     32 C         141.5196  145.0787  161.3891 C.ar    1  UNL1        0.0986
     33 C         140.3237  145.2793  162.2721 C.ar    1  UNL1        0.0179
     34 C         140.2785  144.6429  163.6296 C.ar    1  UNL1       -0.0013
     35 C         141.4292  143.8059  164.1042 C.ar    1  UNL1        0.0977
     36 N         141.3840  143.1694  165.4618 N.ar    1  UNL1       -0.2105
     37 C         141.3639  140.7714  167.6517 C.3     1  UNL1        0.2542
     38 O         142.4896  141.6960  167.2940 O.3     1  UNL1       -0.4561
@<TRIPOS>BOND
     1    37    38    1
     2    38    26    1
     3    26    27   ar
     4    27    28   ar
     5    28    29    1
     6    28    30   ar
     7    30    31   ar
     8    31    32   ar
     9    32    33   ar
    10    33    34   ar
    11    34    25    1
    12    25    24    1
    13    24     1    1
    14     1     2    1
    15     2     3    1
    16     3     4    1
    17     4     9    1
    18     9    11    1
    19    11    12    1
    20    12    13   ar
    21    13    14   ar
    22    14    15   ar
    23    15    16   ar
    24    16    17   ar
    25    16    18    1
    26    18    19   am
    27    19    20    2
    28    19    21    1
    29    21    22    1
    30     4     5    1
    31     5     6    1
    32     4     7    1
    33     7     8    1
    34    34    35   ar
    35    35    36   ar
    36    36    26   ar
    37    35    30   ar
    38     6     1    1
    39     8     1    1
    40    17    12   ar
    41    22    15    1
    42     9    10    1
    43    18    23    1
@<TRIPOS>MOLECULE
*****
 38 43 0 0 0
SMALL
GASTEIGER

@<TRIPOS>ATOM
      1 C         139.1570  144.1967  163.2918 C.3     1  UNL1        0.0932
      2 C         140.0970  144.7332  164.3304 C.3     1  UNL1        0.0286
      3 C         141.5244  145.0231  163.9719 C.3     1  UNL1        0.0193
      4 C         142.0118  144.7765  162.5750 C.3     1  UNL1        0.0700
      5 C         141.0719  144.2399  161.5364 C.3     1  UNL1        0.0193
      6 C         139.6445  143.9501  161.8948 C.3     1  UNL1        0.0286
      7 C         141.2210  144.6024  162.7240 C.3     1  UNL1        0.1562
      8 O         139.9303  144.3403  163.0481 O.3     1  UNL1       -0.3572
      9 N         143.4393  145.0663  162.2166 N.3     1  UNL1       -0.2926
     10 H         143.6450  146.0038  162.5617 H       1  UNL1        0.1236
     11 C         144.5345  144.1712  162.7157 C.3     1  UNL1        0.1152
     12 C         144.3947  142.6818  162.6053 C.ar    1  UNL1        0.0765
     13 C         144.6357  141.8149  163.8055 C.ar    1  UNL1        0.0193
     14 C         144.4958  140.3255  163.6952 C.ar    1  UNL1        0.0411
     15 C         144.1150  139.7030  162.3847 C.ar    1  UNL1        0.1708
     16 C         143.8739  140.5699  161.1846 C.ar    1  UNL1        0.1682
     17 N         144.0138  142.0593  161.2949 N.ar    1  UNL1       -0.2304
     18 N         143.4930  139.9474  159.8740 N.am    1  UNL1       -0.2639
     19 C         143.3532  138.4580  159.7637 C.2     1  UNL1        0.2718
     20 O         142.9723  137.8355  158.4532 O.2     1  UNL1       -0.2707
     21 C         143.5943  137.5911  160.9639 C.3     1  UNL1        0.2898
     22 O         143.9751  138.2136  162.2744 O.3     1  UNL1       -0.4628
     23 H         143.3348  140.5163  159.0863 H       1  UNL1        0.1565
     24 C         137.7296  143.9069  163.6502 C.3     1  UNL1        0.0319
     25 C         137.3794  142.6368  164.3674 C.3     1  UNL1        0.0304
     26 C         140.7039  140.7932  166.7755 C.ar    1  UNL1        0.2247
     27 C         141.3135  139.4936  166.3404 C.ar    1  UNL1        0.0549
     28 C         140.8151  138.8085  165.1026 C.ar    1  UNL1        0.0019
     29 C         141.4248  137.5089  164.6675 C.3     1  UNL1        0.0328
     30 C         139.7069  139.4231  164.2999 C.ar    1  UNL1        0.0948
     31 N         139.2085  138.7380  163.0621 N.ar    1  UNL1       -0.2427
     32 C         138.1004  139.3526  162.2594 C.ar    1  UNL1        0.0986
     33 C         137.4907  140.6522  162.6945 C.ar    1  UNL1        0.0179
     34 C         137.9891  141.3372  163.9323 C.ar    1  UNL1       -0.0013
     35 C         139.0972  140.7227  164.7350 C.ar    1  UNL1        0.0977
     36 N         139.5957  141.4077  165.9729 N.ar    1  UNL1       -0.2105
     37 C         142.5724  142.0887  168.0327 C.3     1  UNL1        0.2542
     38 O         141.2024  141.4783  168.0134 O.3     1  UNL1       -0.4561
@<TRIPOS>BOND
     1    37    38    1
     2    38    26    1
     3    26    27   ar
     4    27    28   ar
     5    28    29    1
     6    28    30   ar
     7    30    31   ar
     8    31    32   ar
     9    32    33   ar
    10    33    34   ar
    11    34    25    1
    12    25    24    1
    13    24     1    1
    14     1     2    1
    15     2     3    1
    16     3     4    1
    17     4     9    1
    18     9    11    1
    19    11    12    1
    20    12    13   ar
    21    13    14   ar
    22    14    15   ar
    23    15    16   ar
    24    16    17   ar
    25    16    18    1
    26    18    19   am
    27    19    20    2
    28    19    21    1
    29    21    22    1
    30     4     5    1
    31     5     6    1
    32     4     7    1
    33     7     8    1
    34    34    35   ar
    35    35    36   ar
    36    36    26   ar
    37    35    30   ar
    38     6     1    1
    39     8     1    1
    40    17    12   ar
    41    22    15    1
    42     9    10    1
    43    18    23    1
@<TRIPOS>MOLECULE
*****
 38 43 0 0 0
SMALL
GASTEIGER

@<TRIPOS>ATOM
      1 C         141.4412  138.0309  164.3867 C.3     1  UNL1        0.0932
      2 C         141.7507  138.0174  162.9191 C.3     1  UNL1        0.0286
      3 C         140.6343  138.0023  161.9173 C.3     1  UNL1        0.0193
      4 C         139.2085  138.0006  162.3831 C.3     1  UNL1        0.0700
      5 C         138.8990  138.0141  163.8508 C.3     1  UNL1        0.0193
      6 C         140.0153  138.0292  164.8526 C.3     1  UNL1        0.0286
      7 C         139.7864  138.0091  162.9695 C.3     1  UNL1        0.1562
      8 O         140.7958  138.0228  163.8754 O.3     1  UNL1       -0.3572
      9 N         138.0922  137.9854  161.3813 N.3     1  UNL1       -0.2926
     10 H         137.3812  137.3494  161.7423 H       1  UNL1        0.1236
     11 C         137.3897  139.2610  161.0218 C.3     1  UNL1        0.1152
     12 C         138.1758  140.4317  160.5102 C.ar    1  UNL1        0.0765
     13 C         138.8880  140.3389  159.1934 C.ar    1  UNL1        0.0193
     14 C         139.6741  141.5095  158.6817 C.ar    1  UNL1        0.0411
     15 C         139.7478  142.7729  159.4869 C.ar    1  UNL1        0.1708
     16 C         139.0355  142.8657  160.8037 C.ar    1  UNL1        0.1682
     17 N         138.2495  141.6951  161.3153 N.ar    1  UNL1       -0.2304
     18 N         139.1093  144.1291  161.6089 N.am    1  UNL1       -0.2639
     19 C         139.8953  145.2998  161.0973 C.2     1  UNL1        0.2718
     20 O         139.9690  146.5632  161.9024 O.2     1  UNL1       -0.2707
     21 C         140.6076  145.2070  159.7804 C.3     1  UNL1        0.2898
     22 O         140.5338  143.9436  158.9752 O.3     1  UNL1       -0.4628
     23 H         138.6418  144.1900  162.4732 H       1  UNL1        0.1565
     24 C         142.5575  138.0461  165.3885 C.3     1  UNL1        0.0319
     25 C         143.0121  139.3450  165.9852 C.3     1  UNL1        0.0304
     26 C         140.8512  143.2060  165.1651 C.ar    1  UNL1        0.2247
     27 C         141.4853  144.2501  164.2945 C.ar    1  UNL1        0.0549
     28 C         142.8396  144.0072  163.6974 C.ar    1  UNL1        0.0019
     29 C         143.4737  145.0513  162.8268 C.3     1  UNL1        0.0328
     30 C         143.5600  142.7201  163.9707 C.ar    1  UNL1        0.0948
     31 N         144.9144  142.4772  163.3736 N.ar    1  UNL1       -0.2427
     32 C         145.6346  141.1902  163.6469 C.ar    1  UNL1        0.0986
     33 C         145.0006  140.1461  164.5175 C.ar    1  UNL1        0.0179
     34 C         143.6462  140.3891  165.1147 C.ar    1  UNL1       -0.0013
     35 C         142.9259  141.6760  164.8413 C.ar    1  UNL1        0.0977
     36 N         141.5715  141.9190  165.4385 N.ar    1  UNL1       -0.2105
     37 C         138.7832  144.7423  165.5014 C.3     1  UNL1        0.2542
     38 O         139.4968  143.4490  165.7623 O.3     1  UNL1       -0.4561
@<TRIPOS>BOND
     1    37    38    1
     2    38    26    1
     3    26    27   ar
     4    27    28   ar
     5    28    29    1
     6    28    30   ar
     7    30    31   ar
     8    31    32   ar
     9    32    33   ar
    10    33    34   ar
    11    34    25    1
    12    25    24    1
    13    24     1    1
    14     1     2    1
    15     2     3    1
    16     3     4    1
    17     4     9    1
    18     9    11    1
    19    11    12    1
    20    12    13   ar
    21    13    14   ar
    22    14    15   ar
    23    15    16   ar
    24    16    17   ar
    25    16    18    1
    26    18    19   am
    27    19    20    2
    28    19    21    1
    29    21    22    1
    30     4     5    1
    31     5     6    1
    32     4     7    1
    33     7     8    1
    34    34    35   ar
    35    35    36   ar
    36    36    26   ar
    37    35    30   ar
    38     6     1    1
    39     8     1    1
    40    17    12   ar
    41    22    15    1
    42     9    10    1
    43    18    23    1
