@<TRIPOS>MOLECULE
*****
 32 36 0 0 0
SMALL
GASTEIGER

@<TRIPOS>ATOM
      1 O         138.6375  143.8282  155.4599 O.2     1  UNL1       -0.2258
      2 C         139.2178  144.3491  156.7412 C.2     1  UNL1        0.4097
      3 O         139.4080  143.5653  158.0060 O.3     1  UNL1       -0.4398
      4 C         140.0176  144.4771  159.0292 C.3     1  UNL1        0.1561
      5 C         139.7714  143.0827  159.5241 C.3     1  UNL1        0.0425
      6 C         140.1312  142.7122  160.9323 C.3     1  UNL1        0.0160
      7 C         140.7373  143.7361  161.8457 C.3     1  UNL1        0.1122
      8 C         140.9836  145.1305  161.3508 C.3     1  UNL1        0.0160
      9 C         140.6237  145.5010  159.9426 C.3     1  UNL1        0.0425
     10 C         140.2042  145.8245  158.3968 C.3     1  UNL1        0.1429
     11 N         139.7100  145.7454  156.9828 N.am    1  UNL1       -0.2060
     12 C         141.0971  143.3656  163.2540 C.2     1  UNL1        0.3506
     13 N         140.1353  143.1788  164.3898 N.2     1  UNL1       -0.0350
     14 C         140.9257  142.8146  165.6115 C.2     1  UNL1        0.2348
     15 C         140.5122  142.5129  167.0214 C.2     1  UNL1        0.0869
     16 C         141.5491  142.1728  168.0507 C.2     1  UNL1        0.1468
     17 C         142.9994  142.1344  167.6699 C.2     1  UNL1        0.0200
     18 C         143.4129  142.4361  166.2600 C.3     1  UNL1        0.1068
     19 C         142.3761  142.7762  165.2308 C.2     1  UNL1        0.2176
     20 N         142.4820  143.1167  163.7738 N.2     1  UNL1       -0.0389
     21 O         141.1355  141.8711  169.4606 O.2     1  UNL1       -0.4047
     22 C         140.2321  142.8164  170.1958 C.3     1  UNL1        0.5753
     23 F         139.3289  143.7616  170.9310 F       1  UNL1       -0.1328
     24 F         141.2427  143.9122  170.0284 F       1  UNL1       -0.1328
     25 F         139.2216  141.7206  170.3632 F       1  UNL1       -0.1328
     26 C         139.7081  146.8658  155.9856 C.ar    1  UNL1        0.1424
     27 C         140.4685  146.7269  154.7001 C.ar    1  UNL1        0.0350
     28 C         140.4667  147.8474  153.7028 C.ar    1  UNL1        0.0068
     29 C         139.7044  149.1067  153.9910 C.ar    1  UNL1        0.0498
     30 C         138.9439  149.2456  155.2765 C.ar    1  UNL1        0.2234
     31 F         138.1815  150.5049  155.5646 F       1  UNL1       -0.1832
     32 N         138.9458  148.1251  156.2737 N.ar    1  UNL1       -0.2026
@<TRIPOS>BOND
     1     1     2    2
     2     2     3    1
     3     3     4    1
     4     4     5    1
     5     5     6    1
     6     6     7    1
     7     7    12    1
     8    12    13    2
     9    13    14    1
    10    14    15    2
    11    15    16    1
    12    16    21    1
    13    21    22    1
    14    22    23    1
    15    22    24    1
    16    22    25    1
    17    16    17    2
    18    17    18    1
    19    18    19    1
    20    19    20    2
    21     7     8    1
    22     8     9    1
    23     4    10    1
    24    10    11    1
    25    11    26    1
    26    26    27   ar
    27    27    28   ar
    28    28    29   ar
    29    29    30   ar
    30    30    31    1
    31    30    32   ar
    32    11     2   am
    33    32    26   ar
    34     9     4    1
    35    20    12    1
    36    19    14    1
@<TRIPOS>MOLECULE
*****
 32 36 0 0 0
SMALL
GASTEIGER

@<TRIPOS>ATOM
      1 O         143.7487  142.6081  167.5237 O.2     1  UNL1       -0.2258
      2 C         142.7515  142.8086  166.4213 C.2     1  UNL1        0.4097
      3 O         143.0444  143.3582  165.0566 O.3     1  UNL1       -0.4398
      4 C         141.7601  143.3840  164.2819 C.3     1  UNL1        0.1561
      5 C         142.9450  143.8937  163.5161 C.3     1  UNL1        0.0425
      6 C         142.7768  144.3695  162.1036 C.3     1  UNL1        0.0160
      7 C         141.4239  144.3356  161.4568 C.3     1  UNL1        0.1122
      8 C         140.2390  143.8260  162.2225 C.3     1  UNL1        0.0160
      9 C         140.4072  143.3501  163.6351 C.3     1  UNL1        0.0425
     10 C         140.6736  142.8504  165.1678 C.3     1  UNL1        0.1429
     11 N         141.2862  142.4948  166.4900 N.am    1  UNL1       -0.2060
     12 C         141.2558  144.8115  160.0442 C.2     1  UNL1        0.3506
     13 N         140.1176  145.6368  159.5214 N.2     1  UNL1       -0.0350
     14 C         140.3548  145.8809  158.0605 C.2     1  UNL1        0.2348
     15 C         139.5668  146.6303  157.0273 C.2     1  UNL1        0.0869
     16 C         140.0637  146.7051  155.6139 C.2     1  UNL1        0.1468
     17 C         141.3484  146.0306  155.2338 C.2     1  UNL1        0.0200
     18 C         142.1364  145.2813  156.2671 C.3     1  UNL1        0.1068
     19 C         141.6396  145.2064  157.6804 C.2     1  UNL1        0.2176
     20 N         142.1964  144.5455  158.9064 N.2     1  UNL1       -0.0389
     21 O         139.2758  147.4544  154.5806 O.2     1  UNL1       -0.4047
     22 C         139.4939  148.9267  154.3932 C.3     1  UNL1        0.5753
     23 F         139.7119  150.3988  154.2058 F       1  UNL1       -0.1328
     24 F         138.4340  149.2137  155.4151 F       1  UNL1       -0.1328
     25 F         140.5537  148.6396  153.3713 F       1  UNL1       -0.1328
     26 C         140.5610  141.9254  167.6731 C.ar    1  UNL1        0.1424
     27 C         139.9467  140.5595  167.5900 C.ar    1  UNL1        0.0350
     28 C         139.2215  139.9901  168.7732 C.ar    1  UNL1        0.0068
     29 C         139.1106  140.7866  170.0394 C.ar    1  UNL1        0.0498
     30 C         139.7249  142.1526  170.1225 C.ar    1  UNL1        0.2234
     31 F         139.6140  142.9491  171.3887 F       1  UNL1       -0.1832
     32 N         140.4501  142.7219  168.9393 N.ar    1  UNL1       -0.2026
@<TRIPOS>BOND
     1     1     2    2
     2     2     3    1
     3     3     4    1
     4     4     5    1
     5     5     6    1
     6     6     7    1
     7     7    12    1
     8    12    13    2
     9    13    14    1
    10    14    15    2
    11    15    16    1
    12    16    21    1
    13    21    22    1
    14    22    23    1
    15    22    24    1
    16    22    25    1
    17    16    17    2
    18    17    18    1
    19    18    19    1
    20    19    20    2
    21     7     8    1
    22     8     9    1
    23     4    10    1
    24    10    11    1
    25    11    26    1
    26    26    27   ar
    27    27    28   ar
    28    28    29   ar
    29    29    30   ar
    30    30    31    1
    31    30    32   ar
    32    11     2   am
    33    32    26   ar
    34     9     4    1
    35    20    12    1
    36    19    14    1
@<TRIPOS>MOLECULE
*****
 32 36 0 0 0
SMALL
GASTEIGER

@<TRIPOS>ATOM
      1 O         138.8489  139.5182  168.4879 O.2     1  UNL1       -0.2258
      2 C         139.6070  139.8168  167.2286 C.2     1  UNL1        0.4097
      3 O         139.3821  139.1761  165.8910 O.3     1  UNL1       -0.4398
      4 C         140.3593  139.7719  164.9214 C.3     1  UNL1        0.1561
      5 C         139.4557  138.7373  164.3188 C.3     1  UNL1        0.0425
      6 C         139.5819  138.3859  162.8661 C.3     1  UNL1        0.0160
      7 C         140.6116  139.0691  162.0159 C.3     1  UNL1        0.1122
      8 C         141.5152  140.1037  162.6184 C.3     1  UNL1        0.0160
      9 C         141.3890  140.4551  164.0711 C.3     1  UNL1        0.0425
     10 C         141.1882  140.7809  165.6597 C.3     1  UNL1        0.1429
     11 N         140.7233  140.8087  167.0855 N.am    1  UNL1       -0.2060
     12 C         140.7378  138.7176  160.5630 C.2     1  UNL1        0.3506
     13 N         141.9384  138.1047  159.9052 N.2     1  UNL1       -0.0350
     14 C         141.6281  137.9257  158.4486 C.2     1  UNL1        0.2348
     15 C         142.4336  137.3702  157.3117 C.2     1  UNL1        0.0869
     16 C         141.8465  137.3170  155.9323 C.2     1  UNL1        0.1468
     17 C         140.4540  137.8193  155.6899 C.2     1  UNL1        0.0200
     18 C         139.6486  138.3748  156.8269 C.3     1  UNL1        0.1068
     19 C         140.2356  138.4280  158.2062 C.2     1  UNL1        0.2176
     20 N         139.6854  138.9174  159.5130 N.2     1  UNL1       -0.0389
     21 O         142.6519  136.7615  154.7953 O.2     1  UNL1       -0.4047
     22 C         143.1944  135.3651  154.8724 C.3     1  UNL1        0.5753
     23 F         143.7368  133.9688  154.9494 F       1  UNL1       -0.1328
     24 F         144.5418  135.9091  155.2446 F       1  UNL1       -0.1328
     25 F         141.8470  134.8211  154.5002 F       1  UNL1       -0.1328
     26 C         141.2773  141.6759  168.1768 C.ar    1  UNL1        0.1424
     27 C         140.3858  142.6541  168.8828 C.ar    1  UNL1        0.0350
     28 C         140.9399  143.5213  169.9741 C.ar    1  UNL1        0.0068
     29 C         142.3853  143.4105  170.3593 C.ar    1  UNL1        0.0498
     30 C         143.2768  142.4323  169.6532 C.ar    1  UNL1        0.2234
     31 F         144.7223  142.3214  170.0384 F       1  UNL1       -0.1832
     32 N         142.7227  141.5650  168.5620 N.ar    1  UNL1       -0.2026
@<TRIPOS>BOND
     1     1     2    2
     2     2     3    1
     3     3     4    1
     4     4     5    1
     5     5     6    1
     6     6     7    1
     7     7    12    1
     8    12    13    2
     9    13    14    1
    10    14    15    2
    11    15    16    1
    12    16    21    1
    13    21    22    1
    14    22    23    1
    15    22    24    1
    16    22    25    1
    17    16    17    2
    18    17    18    1
    19    18    19    1
    20    19    20    2
    21     7     8    1
    22     8     9    1
    23     4    10    1
    24    10    11    1
    25    11    26    1
    26    26    27   ar
    27    27    28   ar
    28    28    29   ar
    29    29    30   ar
    30    30    31    1
    31    30    32   ar
    32    11     2   am
    33    32    26   ar
    34     9     4    1
    35    20    12    1
    36    19    14    1
@<TRIPOS>MOLECULE
*****
 32 36 0 0 0
SMALL
GASTEIGER

@<TRIPOS>ATOM
      1 O         141.4555  139.4862  166.0485 O.2     1  UNL1       -0.2258
      2 C         141.4566  140.8052  165.3343 C.2     1  UNL1        0.4097
      3 O         141.2840  141.0088  163.8582 O.3     1  UNL1       -0.4398
      4 C         141.3513  142.4817  163.5824 C.3     1  UNL1        0.1561
      5 C         141.1381  141.6410  162.3586 C.3     1  UNL1        0.0425
      6 C         141.0131  142.2927  161.0135 C.3     1  UNL1        0.0160
      7 C         141.1013  143.7852  160.8920 C.3     1  UNL1        0.1122
      8 C         141.3146  144.6259  162.1158 C.3     1  UNL1        0.0160
      9 C         141.4395  143.9742  163.4610 C.3     1  UNL1        0.0425
     10 C         141.5656  143.1884  164.8881 C.3     1  UNL1        0.1429
     11 N         141.6307  142.1523  165.9708 N.am    1  UNL1       -0.2060
     12 C         140.9763  144.4369  159.5468 C.2     1  UNL1        0.3506
     13 N         139.9666  145.4771  159.1614 N.2     1  UNL1       -0.0350
     14 C         140.2054  145.8459  157.7272 C.2     1  UNL1        0.2348
     15 C         139.5185  146.8164  156.8126 C.2     1  UNL1        0.0869
     16 C         139.9890  146.9746  155.3971 C.2     1  UNL1        0.1468
     17 C         141.1462  146.1624  154.8961 C.2     1  UNL1        0.0200
     18 C         141.8331  145.1919  155.8106 C.3     1  UNL1        0.1068
     19 C         141.3627  145.0336  157.2261 C.2     1  UNL1        0.2176
     20 N         141.8392  144.1628  158.3507 N.2     1  UNL1       -0.0389
     21 O         139.3021  147.9451  154.4826 O.2     1  UNL1       -0.4047
     22 C         139.5705  149.4153  154.6110 C.3     1  UNL1        0.5753
     23 F         139.8389  150.8855  154.7395 F       1  UNL1       -0.1328
     24 F         138.3451  149.5646  155.4631 F       1  UNL1       -0.1328
     25 F         140.7960  149.2661  153.7590 F       1  UNL1       -0.1328
     26 C         141.8341  142.4169  167.4331 C.ar    1  UNL1        0.1424
     27 C         140.6690  142.8056  168.2942 C.ar    1  UNL1        0.0350
     28 C         140.8724  143.0701  169.7566 C.ar    1  UNL1        0.0068
     29 C         142.2410  142.9460  170.3580 C.ar    1  UNL1        0.0498
     30 C         143.4062  142.5572  169.4969 C.ar    1  UNL1        0.2234
     31 F         144.7747  142.4331  170.0983 F       1  UNL1       -0.1832
     32 N         143.2026  142.2927  168.0345 N.ar    1  UNL1       -0.2026
@<TRIPOS>BOND
     1     1     2    2
     2     2     3    1
     3     3     4    1
     4     4     5    1
     5     5     6    1
     6     6     7    1
     7     7    12    1
     8    12    13    2
     9    13    14    1
    10    14    15    2
    11    15    16    1
    12    16    21    1
    13    21    22    1
    14    22    23    1
    15    22    24    1
    16    22    25    1
    17    16    17    2
    18    17    18    1
    19    18    19    1
    20    19    20    2
    21     7     8    1
    22     8     9    1
    23     4    10    1
    24    10    11    1
    25    11    26    1
    26    26    27   ar
    27    27    28   ar
    28    28    29   ar
    29    29    30   ar
    30    30    31    1
    31    30    32   ar
    32    11     2   am
    33    32    26   ar
    34     9     4    1
    35    20    12    1
    36    19    14    1
@<TRIPOS>MOLECULE
*****
 32 36 0 0 0
SMALL
GASTEIGER

@<TRIPOS>ATOM
      1 O         137.6599  138.7844  168.3338 O.2     1  UNL1       -0.2258
      2 C         138.5736  139.1715  167.2089 C.2     1  UNL1        0.4097
      3 O         138.4734  138.6985  165.7889 O.3     1  UNL1       -0.4398
      4 C         139.5858  139.3343  165.0089 C.3     1  UNL1        0.1561
      5 C         138.7069  138.4327  164.1938 C.3     1  UNL1        0.0425
      6 C         138.9831  138.2369  162.7325 C.3     1  UNL1        0.0160
      7 C         140.1382  138.9428  162.0864 C.3     1  UNL1        0.1122
      8 C         141.0171  139.8445  162.9016 C.3     1  UNL1        0.0160
      9 C         140.7409  140.0403  164.3628 C.3     1  UNL1        0.0425
     10 C         140.3735  140.2003  165.9469 C.3     1  UNL1        0.1429
     11 N         139.7479  140.0997  167.3065 N.am    1  UNL1       -0.2060
     12 C         140.4144  138.7471  160.6251 C.2     1  UNL1        0.3506
     13 N         141.6478  138.1294  160.0359 N.2     1  UNL1       -0.0350
     14 C         141.5013  138.1352  158.5431 C.2     1  UNL1        0.2348
     15 C         142.4025  137.6551  157.4443 C.2     1  UNL1        0.0869
     16 C         141.9796  137.7961  156.0120 C.2     1  UNL1        0.1468
     17 C         140.6556  138.4173  155.6786 C.2     1  UNL1        0.0200
     18 C         139.7545  138.8974  156.7774 C.3     1  UNL1        0.1068
     19 C         140.1773  138.7564  158.2096 C.2     1  UNL1        0.2176
     20 N         139.5056  139.1345  159.4964 N.2     1  UNL1       -0.0389
     21 O         142.8808  137.3160  154.9132 O.2     1  UNL1       -0.4047
     22 C         143.1915  135.8543  154.7829 C.3     1  UNL1        0.5753
     23 F         143.5021  134.3926  154.6525 F       1  UNL1       -0.1328
     24 F         141.8126  135.6091  154.2456 F       1  UNL1       -0.1328
     25 F         144.5703  136.0994  155.3201 F       1  UNL1       -0.1328
     26 C         140.2147  140.8036  168.5460 C.ar    1  UNL1        0.1424
     27 C         140.6913  140.0088  169.7255 C.ar    1  UNL1        0.0350
     28 C         141.1581  140.7128  170.9651 C.ar    1  UNL1        0.0068
     29 C         141.1483  142.2115  171.0252 C.ar    1  UNL1        0.0498
     30 C         140.6717  143.0064  169.8457 C.ar    1  UNL1        0.2234
     31 F         140.6619  144.5052  169.9059 F       1  UNL1       -0.1832
     32 N         140.2049  142.3024  168.6062 N.ar    1  UNL1       -0.2026
@<TRIPOS>BOND
     1     1     2    2
     2     2     3    1
     3     3     4    1
     4     4     5    1
     5     5     6    1
     6     6     7    1
     7     7    12    1
     8    12    13    2
     9    13    14    1
    10    14    15    2
    11    15    16    1
    12    16    21    1
    13    21    22    1
    14    22    23    1
    15    22    24    1
    16    22    25    1
    17    16    17    2
    18    17    18    1
    19    18    19    1
    20    19    20    2
    21     7     8    1
    22     8     9    1
    23     4    10    1
    24    10    11    1
    25    11    26    1
    26    26    27   ar
    27    27    28   ar
    28    28    29   ar
    29    29    30   ar
    30    30    31    1
    31    30    32   ar
    32    11     2   am
    33    32    26   ar
    34     9     4    1
    35    20    12    1
    36    19    14    1
@<TRIPOS>MOLECULE
*****
 32 36 0 0 0
SMALL
GASTEIGER

@<TRIPOS>ATOM
      1 O         143.1914  139.0133  155.5351 O.2     1  UNL1       -0.2258
      2 C         143.0636  138.5527  156.9569 C.2     1  UNL1        0.4097
      3 O         143.1377  139.4237  158.1760 O.3     1  UNL1       -0.4398
      4 C         142.9591  138.5496  159.3818 C.3     1  UNL1        0.1561
      5 C         143.1559  140.0012  159.7043 C.3     1  UNL1        0.0425
      6 C         143.1609  140.4580  161.1330 C.3     1  UNL1        0.0160
      7 C         142.9691  139.4632  162.2392 C.3     1  UNL1        0.1122
      8 C         142.7724  138.0116  161.9167 C.3     1  UNL1        0.0160
      9 C         142.7674  137.5548  160.4880 C.3     1  UNL1        0.0425
     10 C         142.7747  137.1383  158.9080 C.3     1  UNL1        0.1429
     11 N         142.8393  137.1402  157.4094 N.am    1  UNL1       -0.2060
     12 C         142.9742  139.9201  163.6680 C.2     1  UNL1        0.3506
     13 N         142.8663  139.0378  164.8762 N.2     1  UNL1       -0.0350
     14 C         142.9134  139.9119  166.0942 C.2     1  UNL1        0.2348
     15 C         142.8493  139.5963  167.5593 C.2     1  UNL1        0.0869
     16 C         142.9221  140.7034  168.5688 C.2     1  UNL1        0.1468
     17 C         143.0590  142.1260  168.1134 C.2     1  UNL1        0.0200
     18 C         143.1231  142.4416  166.6484 C.3     1  UNL1        0.1068
     19 C         143.0503  141.3346  165.6388 C.2     1  UNL1        0.2176
     20 N         143.0879  141.3396  164.1393 N.2     1  UNL1       -0.0389
     21 O         142.8580  140.3878  170.0339 O.2     1  UNL1       -0.4047
     22 C         141.5766  140.5857  170.7883 C.3     1  UNL1        0.5753
     23 F         140.2954  140.7835  171.5427 F       1  UNL1       -0.1328
     24 F         141.0786  139.2616  170.2895 F       1  UNL1       -0.1328
     25 F         142.0747  141.9097  171.2871 F       1  UNL1       -0.1328
     26 C         142.7034  135.9405  156.5195 C.ar    1  UNL1        0.1424
     27 C         141.5283  135.8218  155.5948 C.ar    1  UNL1        0.0350
     28 C         141.3925  134.6219  154.7049 C.ar    1  UNL1        0.0068
     29 C         142.4316  133.5408  154.7397 C.ar    1  UNL1        0.0498
     30 C         143.6068  133.6595  155.6644 C.ar    1  UNL1        0.2234
     31 F         144.6460  132.5783  155.6992 F       1  UNL1       -0.1832
     32 N         143.7426  134.8593  156.5543 N.ar    1  UNL1       -0.2026
@<TRIPOS>BOND
     1     1     2    2
     2     2     3    1
     3     3     4    1
     4     4     5    1
     5     5     6    1
     6     6     7    1
     7     7    12    1
     8    12    13    2
     9    13    14    1
    10    14    15    2
    11    15    16    1
    12    16    21    1
    13    21    22    1
    14    22    23    1
    15    22    24    1
    16    22    25    1
    17    16    17    2
    18    17    18    1
    19    18    19    1
    20    19    20    2
    21     7     8    1
    22     8     9    1
    23     4    10    1
    24    10    11    1
    25    11    26    1
    26    26    27   ar
    27    27    28   ar
    28    28    29   ar
    29    29    30   ar
    30    30    31    1
    31    30    32   ar
    32    11     2   am
    33    32    26   ar
    34     9     4    1
    35    20    12    1
    36    19    14    1
@<TRIPOS>MOLECULE
*****
 32 36 0 0 0
SMALL
GASTEIGER

@<TRIPOS>ATOM
      1 O         143.2333  138.6286  168.1640 O.2     1  UNL1       -0.2258
      2 C         142.8993  139.4313  166.9416 C.2     1  UNL1        0.4097
      3 O         143.4638  139.2218  165.5677 O.3     1  UNL1       -0.4398
      4 C         142.8555  140.2455  164.6555 C.3     1  UNL1        0.1561
      5 C         143.8258  139.3240  163.9777 C.3     1  UNL1        0.0425
      6 C         144.1083  139.4784  162.5127 C.3     1  UNL1        0.0160
      7 C         143.4206  140.5543  161.7255 C.3     1  UNL1        0.1122
      8 C         142.4503  141.4757  162.4034 C.3     1  UNL1        0.0160
      9 C         142.1678  141.3213  163.8684 C.3     1  UNL1        0.0425
     10 C         141.9149  141.0876  165.4657 C.3     1  UNL1        0.1429
     11 N         141.9420  140.5845  166.8785 N.am    1  UNL1       -0.2060
     12 C         143.7032  140.7086  160.2605 C.2     1  UNL1        0.3506
     13 N         144.3811  141.8789  159.6118 N.2     1  UNL1       -0.0350
     14 C         144.4544  141.6133  158.1373 C.2     1  UNL1        0.2348
     15 C         145.0154  142.4142  156.9999 C.2     1  UNL1        0.0869
     16 C         144.9438  141.8806  155.5998 C.2     1  UNL1        0.1468
     17 C         144.3111  140.5462  155.3372 C.2     1  UNL1        0.0200
     18 C         143.7500  139.7453  156.4746 C.3     1  UNL1        0.1068
     19 C         143.8216  140.2788  157.8747 C.2     1  UNL1        0.2176
     20 N         143.3574  139.7197  159.1869 N.2     1  UNL1       -0.0389
     21 O         145.5048  142.6815  154.4623 O.2     1  UNL1       -0.4047
     22 C         146.9804  142.9393  154.3826 C.3     1  UNL1        0.5753
     23 F         148.4559  143.1971  154.3029 F       1  UNL1       -0.1328
     24 F         146.7159  144.4089  154.2410 F       1  UNL1       -0.1328
     25 F         147.2449  141.4696  154.5243 F       1  UNL1       -0.1328
     26 C         141.1508  141.1374  168.0266 C.ar    1  UNL1        0.1424
     27 C         140.1823  140.2591  168.7619 C.ar    1  UNL1        0.0350
     28 C         139.3911  140.8121  169.9101 C.ar    1  UNL1        0.0068
     29 C         139.5683  142.2432  170.3229 C.ar    1  UNL1        0.0498
     30 C         140.5368  143.1215  169.5875 C.ar    1  UNL1        0.2234
     31 F         140.7140  144.5527  170.0003 F       1  UNL1       -0.1832
     32 N         141.3280  142.5685  168.4394 N.ar    1  UNL1       -0.2026
@<TRIPOS>BOND
     1     1     2    2
     2     2     3    1
     3     3     4    1
     4     4     5    1
     5     5     6    1
     6     6     7    1
     7     7    12    1
     8    12    13    2
     9    13    14    1
    10    14    15    2
    11    15    16    1
    12    16    21    1
    13    21    22    1
    14    22    23    1
    15    22    24    1
    16    22    25    1
    17    16    17    2
    18    17    18    1
    19    18    19    1
    20    19    20    2
    21     7     8    1
    22     8     9    1
    23     4    10    1
    24    10    11    1
    25    11    26    1
    26    26    27   ar
    27    27    28   ar
    28    28    29   ar
    29    29    30   ar
    30    30    31    1
    31    30    32   ar
    32    11     2   am
    33    32    26   ar
    34     9     4    1
    35    20    12    1
    36    19    14    1
@<TRIPOS>MOLECULE
*****
 32 36 0 0 0
SMALL
GASTEIGER

@<TRIPOS>ATOM
      1 O         145.1938  139.1990  155.4519 O.2     1  UNL1       -0.2258
      2 C         145.0091  140.2128  156.5419 C.2     1  UNL1        0.4097
      3 O         144.3214  139.9808  157.8547 O.3     1  UNL1       -0.4398
      4 C         144.3670  141.2612  158.6346 C.3     1  UNL1        0.1561
      5 C         143.6743  140.1374  159.3468 C.3     1  UNL1        0.0425
      6 C         143.1042  140.3561  160.7168 C.3     1  UNL1        0.0160
      7 C         143.2267  141.6985  161.3747 C.3     1  UNL1        0.1122
      8 C         143.9194  142.8223  160.6625 C.3     1  UNL1        0.0160
      9 C         144.4895  142.6037  159.2925 C.3     1  UNL1        0.0425
     10 C         145.0830  142.2847  157.8039 C.3     1  UNL1        0.1429
     11 N         145.4798  141.6368  156.5106 N.am    1  UNL1       -0.2060
     12 C         142.6565  141.9171  162.7448 C.2     1  UNL1        0.3506
     13 N         143.3211  141.5658  164.0428 N.2     1  UNL1       -0.0350
     14 C         142.3970  141.9570  165.1576 C.2     1  UNL1        0.2348
     15 C         142.5210  141.8497  166.6486 C.2     1  UNL1        0.0869
     16 C         141.4093  142.3356  167.5306 C.2     1  UNL1        0.1468
     17 C         140.1735  142.9288  166.9216 C.2     1  UNL1        0.0200
     18 C         140.0494  143.0361  165.4306 C.3     1  UNL1        0.1068
     19 C         141.1611  142.5502  164.5486 C.2     1  UNL1        0.2176
     20 N         141.3215  142.5255  163.0574 N.2     1  UNL1       -0.0389
     21 O         141.5334  142.2284  169.0216 O.2     1  UNL1       -0.4047
     22 C         140.4518  142.7753  169.9055 C.3     1  UNL1        0.5753
     23 F         139.3703  143.3222  170.7894 F       1  UNL1       -0.1328
     24 F         141.1631  144.0947  169.9595 F       1  UNL1       -0.1328
     25 F         139.7404  141.4558  169.8516 F       1  UNL1       -0.1328
     26 C         146.2177  142.2968  155.3838 C.ar    1  UNL1        0.1424
     27 C         145.4818  143.1819  154.4220 C.ar    1  UNL1        0.0350
     28 C         146.2198  143.8420  153.2952 C.ar    1  UNL1        0.0068
     29 C         147.6936  143.6170  153.1301 C.ar    1  UNL1        0.0498
     30 C         148.4295  142.7319  154.0919 C.ar    1  UNL1        0.2234
     31 F         149.9033  142.5068  153.9269 F       1  UNL1       -0.1832
     32 N         147.6915  142.0718  155.2187 N.ar    1  UNL1       -0.2026
@<TRIPOS>BOND
     1     1     2    2
     2     2     3    1
     3     3     4    1
     4     4     5    1
     5     5     6    1
     6     6     7    1
     7     7    12    1
     8    12    13    2
     9    13    14    1
    10    14    15    2
    11    15    16    1
    12    16    21    1
    13    21    22    1
    14    22    23    1
    15    22    24    1
    16    22    25    1
    17    16    17    2
    18    17    18    1
    19    18    19    1
    20    19    20    2
    21     7     8    1
    22     8     9    1
    23     4    10    1
    24    10    11    1
    25    11    26    1
    26    26    27   ar
    27    27    28   ar
    28    28    29   ar
    29    29    30   ar
    30    30    31    1
    31    30    32   ar
    32    11     2   am
    33    32    26   ar
    34     9     4    1
    35    20    12    1
    36    19    14    1
@<TRIPOS>MOLECULE
*****
 32 36 0 0 0
SMALL
GASTEIGER

@<TRIPOS>ATOM
      1 O         137.6027  138.7272  168.0981 O.2     1  UNL1       -0.2258
      2 C         138.5660  139.1429  167.0262 C.2     1  UNL1        0.4097
      3 O         138.5417  138.6921  165.5957 O.3     1  UNL1       -0.4398
      4 C         139.6835  139.3530  164.8819 C.3     1  UNL1        0.1561
      5 C         138.8568  138.4550  164.0101 C.3     1  UNL1        0.0425
      6 C         139.2070  138.2863  162.5614 C.3     1  UNL1        0.0160
      7 C         140.3841  139.0155  161.9845 C.3     1  UNL1        0.1122
      8 C         141.2108  139.9135  162.8563 C.3     1  UNL1        0.0160
      9 C         140.8605  140.0823  164.3050 C.3     1  UNL1        0.0425
     10 C         140.4136  140.2123  165.8712 C.3     1  UNL1        0.1429
     11 N         139.7229  140.0824  167.1964 N.am    1  UNL1       -0.2060
     12 C         140.7343  138.8468  160.5357 C.2     1  UNL1        0.3506
     13 N         139.8605  138.2314  159.4832 N.2     1  UNL1       -0.0350
     14 C         140.6060  138.2681  158.1821 C.2     1  UNL1        0.2348
     15 C         140.2421  137.8029  156.8033 C.2     1  UNL1        0.0869
     16 C         141.2128  137.9758  155.6728 C.2     1  UNL1        0.1468
     17 C         142.5474  138.6139  155.9212 C.2     1  UNL1        0.0200
     18 C         142.9113  139.0790  157.3000 C.3     1  UNL1        0.1068
     19 C         141.9407  138.9061  158.4305 C.2     1  UNL1        0.2176
     20 N         142.0200  139.2638  159.8850 N.2     1  UNL1       -0.0389
     21 O         140.8488  137.5107  154.2940 O.2     1  UNL1       -0.4047
     22 C         141.5657  136.3434  153.6826 C.3     1  UNL1        0.5753
     23 F         142.2825  135.1763  153.0713 F       1  UNL1       -0.1328
     24 F         140.7303  135.4027  154.4992 F       1  UNL1       -0.1328
     25 F         142.4012  137.2842  152.8660 F       1  UNL1       -0.1328
     26 C         140.1196  140.7712  168.4685 C.ar    1  UNL1        0.1424
     27 C         140.4898  139.9616  169.6757 C.ar    1  UNL1        0.0350
     28 C         140.8864  140.6503  170.9479 C.ar    1  UNL1        0.0068
     29 C         140.9128  142.1487  171.0128 C.ar    1  UNL1        0.0498
     30 C         140.5425  142.9584  169.8055 C.ar    1  UNL1        0.2234
     31 F         140.5689  144.4567  169.8704 F       1  UNL1       -0.1832
     32 N         140.1459  142.2695  168.5334 N.ar    1  UNL1       -0.2026
@<TRIPOS>BOND
     1     1     2    2
     2     2     3    1
     3     3     4    1
     4     4     5    1
     5     5     6    1
     6     6     7    1
     7     7    12    1
     8    12    13    2
     9    13    14    1
    10    14    15    2
    11    15    16    1
    12    16    21    1
    13    21    22    1
    14    22    23    1
    15    22    24    1
    16    22    25    1
    17    16    17    2
    18    17    18    1
    19    18    19    1
    20    19    20    2
    21     7     8    1
    22     8     9    1
    23     4    10    1
    24    10    11    1
    25    11    26    1
    26    26    27   ar
    27    27    28   ar
    28    28    29   ar
    29    29    30   ar
    30    30    31    1
    31    30    32   ar
    32    11     2   am
    33    32    26   ar
    34     9     4    1
    35    20    12    1
    36    19    14    1
