@<TRIPOS>MOLECULE
*****
 27 29 0 0 0
SMALL
GASTEIGER

@<TRIPOS>ATOM
      1 C         140.6233  142.8460  166.0121 C.2     1  UNL1       -0.0151
      2 C         142.0088  142.7958  165.4397 C.2     1  UNL1        0.0120
      3 C         142.3318  143.5589  164.1893 C.2     1  UNL1        0.0668
      4 C         141.2693  144.3721  163.5114 C.2     1  UNL1        0.0511
      5 C         141.2914  145.2222  162.2757 C.2     1  UNL1        0.1246
      6 N         139.9195  145.7978  162.0845 N.2     1  UNL1       -0.1466
      7 N         139.0495  145.3035  163.2021 N.2     1  UNL1       -0.1519
      8 C         139.8837  144.4224  164.0839 C.2     1  UNL1        0.0876
      9 C         139.5607  143.6593  165.3343 C.3     1  UNL1        0.0740
     10 C         139.7828  140.6781  167.1713 C.ar    1  UNL1       -0.0193
     11 C         139.4598  139.9150  168.4217 C.ar    1  UNL1        0.0347
     12 C         139.6542  140.5569  169.7633 C.ar    1  UNL1        0.1607
     13 O         139.3312  139.7939  171.0137 O.3     1  UNL1       -0.5034
     14 C         140.1717  141.9619  169.8546 C.ar    1  UNL1        0.1735
     15 F         140.3661  142.6039  171.1963 F       1  UNL1       -0.2010
     16 C         140.4947  142.7249  168.6042 C.ar    1  UNL1        0.0322
     17 C         140.3003  142.0829  167.2625 C.ar    1  UNL1       -0.0051
     18 H         139.0079  138.9163  170.9567 H       1  UNL1        0.2923
     19 C         138.2039  139.8301  165.2902 C.3     1  UNL1        0.0050
     20 C         139.5884  140.0361  165.8296 C.3     1  UNL1        0.0265
     21 N         143.7174  143.5086  163.6168 N.pl3   1  UNL1       -0.2187
     22 H         144.1839  144.3433  163.3828 H       1  UNL1        0.1734
     23 S         144.3922  142.1865  163.4010 S.O2    1  UNL1        0.0539
     24 O         145.3815  142.5152  164.4796 O.2     1  UNL1       -0.1545
     25 O         143.4030  141.8578  162.3224 O.2     1  UNL1       -0.1545
     26 C         145.0669  140.8643  163.1851 C.3     1  UNL1        0.1724
     27 C         144.8361  139.7383  164.1488 C.3     1  UNL1        0.0292
@<TRIPOS>BOND
     1    19    20    1
     2    20    10    1
     3    10    11   ar
     4    11    12   ar
     5    12    13    1
     6    12    14   ar
     7    14    15    1
     8    14    16   ar
     9    16    17   ar
    10    17     1    1
    11     1     2    2
    12     2     3    1
    13     3    21    1
    14    21    23    1
    15    23    24    2
    16    23    25    2
    17    23    26    1
    18    26    27    1
    19     3     4    2
    20     4     5    1
    21     5     6    2
    22     6     7    1
    23     7     8    2
    24     8     9    1
    25    17    10   ar
    26     9     1    1
    27     8     4    1
    28    13    18    1
    29    21    22    1
@<TRIPOS>MOLECULE
*****
 27 29 0 0 0
SMALL
GASTEIGER

@<TRIPOS>ATOM
      1 C         139.8422  140.0421  166.1448 C.2     1  UNL1       -0.0151
      2 C         139.1694  141.2646  165.5946 C.2     1  UNL1        0.0120
      3 C         138.4523  141.1980  164.2788 C.2     1  UNL1        0.0668
      4 C         138.4081  139.9088  163.5132 C.2     1  UNL1        0.0511
      5 C         137.7821  139.5422  162.2003 C.2     1  UNL1        0.1246
      6 N         138.0681  138.0931  161.9391 N.2     1  UNL1       -0.1466
      7 N         138.8708  137.5641  163.0905 N.2     1  UNL1       -0.1519
      8 C         139.0809  138.6863  164.0634 C.2     1  UNL1        0.0876
      9 C         139.7980  138.7530  165.3792 C.3     1  UNL1        0.0740
     10 C         142.0341  140.3799  167.4982 C.ar    1  UNL1       -0.0193
     11 C         142.7512  140.4465  168.8141 C.ar    1  UNL1        0.0347
     12 C         141.9934  140.2418  170.0923 C.ar    1  UNL1        0.1607
     13 O         142.7105  140.3084  171.4081 O.3     1  UNL1       -0.5034
     14 C         140.5186  139.9706  170.0547 C.ar    1  UNL1        0.1735
     15 F         139.7608  139.7660  171.3330 F       1  UNL1       -0.2010
     16 C         139.8016  139.9041  168.7389 C.ar    1  UNL1        0.0322
     17 C         140.5593  140.1087  167.4606 C.ar    1  UNL1       -0.0051
     18 H         143.6317  140.4778  171.4316 H       1  UNL1        0.2923
     19 C         143.1198  141.9729  165.7565 C.3     1  UNL1        0.0050
     20 C         142.7918  140.5845  166.2200 C.3     1  UNL1        0.0265
     21 N         137.7794  142.4206  163.7286 N.pl3   1  UNL1       -0.2187
     22 H         136.8469  142.3710  163.4168 H       1  UNL1        0.1734
     23 S         138.5273  143.7186  163.6536 S.O2    1  UNL1        0.0539
     24 O         137.6945  144.2634  164.7759 O.2     1  UNL1       -0.1545
     25 O         139.3601  143.1738  162.5313 O.2     1  UNL1       -0.1545
     26 C         139.2752  145.0166  163.5785 C.3     1  UNL1        0.1724
     27 C         139.6078  145.6144  162.2436 C.3     1  UNL1        0.0292
@<TRIPOS>BOND
     1    19    20    1
     2    20    10    1
     3    10    11   ar
     4    11    12   ar
     5    12    13    1
     6    12    14   ar
     7    14    15    1
     8    14    16   ar
     9    16    17   ar
    10    17     1    1
    11     1     2    2
    12     2     3    1
    13     3    21    1
    14    21    23    1
    15    23    24    2
    16    23    25    2
    17    23    26    1
    18    26    27    1
    19     3     4    2
    20     4     5    1
    21     5     6    2
    22     6     7    1
    23     7     8    2
    24     8     9    1
    25    17    10   ar
    26     9     1    1
    27     8     4    1
    28    13    18    1
    29    21    22    1
@<TRIPOS>MOLECULE
*****
 27 29 0 0 0
SMALL
GASTEIGER

@<TRIPOS>ATOM
      1 C         139.9931  141.7130  166.3524 C.2     1  UNL1       -0.0151
      2 C         139.5484  140.6383  165.4052 C.2     1  UNL1        0.0120
      3 C         138.8475  141.0048  164.1306 C.2     1  UNL1        0.0668
      4 C         138.5913  142.4460  163.8033 C.2     1  UNL1        0.0511
      5 C         137.9284  143.1065  162.6311 C.2     1  UNL1        0.1246
      6 N         137.9633  144.5895  162.8538 N.2     1  UNL1       -0.1466
      7 N         138.6478  144.8455  164.1637 N.2     1  UNL1       -0.1519
      8 C         139.0360  143.5207  164.7506 C.2     1  UNL1        0.0876
      9 C         139.7368  143.1542  166.0251 C.3     1  UNL1        0.0740
     10 C         142.1625  141.6117  167.7784 C.ar    1  UNL1       -0.0193
     11 C         142.8634  141.2452  169.0530 C.ar    1  UNL1        0.0347
     12 C         142.0956  140.6135  170.1761 C.ar    1  UNL1        0.1607
     13 O         142.7964  140.2470  171.4507 O.3     1  UNL1       -0.5034
     14 C         140.6270  140.3482  170.0247 C.ar    1  UNL1        0.1735
     15 F         139.8592  139.7165  171.1479 F       1  UNL1       -0.2010
     16 C         139.9262  140.7147  168.7501 C.ar    1  UNL1        0.0322
     17 C         140.6940  141.3465  167.6270 C.ar    1  UNL1       -0.0051
     18 H         143.7138  140.4127  171.5453 H       1  UNL1        0.2923
     19 C         143.4367  141.3982  165.5243 C.3     1  UNL1        0.0050
     20 C         142.9302  142.2434  166.6553 C.3     1  UNL1        0.0265
     21 N         138.4029  139.9300  163.1834 N.pl3   1  UNL1       -0.2187
     22 H         137.4898  139.9447  162.8157 H       1  UNL1        0.1734
     23 S         139.3496  138.8327  162.7964 S.O2    1  UNL1        0.0539
     24 O         138.5703  137.8642  163.6359 O.2     1  UNL1       -0.1545
     25 O         140.1288  139.8012  161.9569 O.2     1  UNL1       -0.1545
     26 C         140.2963  137.7355  162.4093 C.3     1  UNL1        0.1724
     27 C         141.1434  137.0724  163.4546 C.3     1  UNL1        0.0292
@<TRIPOS>BOND
     1    19    20    1
     2    20    10    1
     3    10    11   ar
     4    11    12   ar
     5    12    13    1
     6    12    14   ar
     7    14    15    1
     8    14    16   ar
     9    16    17   ar
    10    17     1    1
    11     1     2    2
    12     2     3    1
    13     3    21    1
    14    21    23    1
    15    23    24    2
    16    23    25    2
    17    23    26    1
    18    26    27    1
    19     3     4    2
    20     4     5    1
    21     5     6    2
    22     6     7    1
    23     7     8    2
    24     8     9    1
    25    17    10   ar
    26     9     1    1
    27     8     4    1
    28    13    18    1
    29    21    22    1
@<TRIPOS>MOLECULE
*****
 27 29 0 0 0
SMALL
GASTEIGER

@<TRIPOS>ATOM
      1 C         140.0176  141.8277  165.5234 C.2     1  UNL1       -0.0151
      2 C         141.1608  141.4053  164.6491 C.2     1  UNL1        0.0120
      3 C         141.0580  141.5471  163.1593 C.2     1  UNL1        0.0668
      4 C         139.8118  142.1113  162.5439 C.2     1  UNL1        0.0511
      5 C         139.4243  142.3684  161.1178 C.2     1  UNL1        0.1246
      6 N         138.0416  142.9497  161.1108 N.2     1  UNL1       -0.1466
      7 N         137.5744  143.0518  162.5326 N.2     1  UNL1       -0.1519
      8 C         138.6685  142.5336  163.4183 C.2     1  UNL1        0.0876
      9 C         138.7714  142.3918  164.9080 C.3     1  UNL1        0.0740
     10 C         139.6763  140.4169  167.6782 C.ar    1  UNL1       -0.0193
     11 C         139.7791  140.2751  169.1680 C.ar    1  UNL1        0.0347
     12 C         140.3261  141.4024  169.9926 C.ar    1  UNL1        0.1607
     13 O         140.4290  141.2606  171.4824 O.3     1  UNL1       -0.5034
     14 C         140.7703  142.6714  169.3275 C.ar    1  UNL1        0.1735
     15 F         141.3174  143.7987  170.1522 F       1  UNL1       -0.2010
     16 C         140.6674  142.8131  167.8378 C.ar    1  UNL1        0.0322
     17 C         140.1204  141.6859  167.0132 C.ar    1  UNL1       -0.0051
     18 H         140.1515  140.4679  171.8978 H       1  UNL1        0.2923
     19 C         137.7517  138.7616  167.1248 C.3     1  UNL1        0.0050
     20 C         139.1292  139.2897  166.8536 C.3     1  UNL1        0.0265
     21 N         142.2014  141.1248  162.2850 N.pl3   1  UNL1       -0.2187
     22 H         142.0498  140.4874  161.5501 H       1  UNL1        0.1734
     23 S         143.5756  141.6735  162.5303 S.O2    1  UNL1        0.0539
     24 O         143.1434  143.0012  161.9823 O.2     1  UNL1       -0.1545
     25 O         144.0078  140.3458  163.0784 O.2     1  UNL1       -0.1545
     26 C         144.9499  142.2222  162.7757 C.3     1  UNL1        0.1724
     27 C         145.8336  141.5952  163.8130 C.3     1  UNL1        0.0292
@<TRIPOS>BOND
     1    19    20    1
     2    20    10    1
     3    10    11   ar
     4    11    12   ar
     5    12    13    1
     6    12    14   ar
     7    14    15    1
     8    14    16   ar
     9    16    17   ar
    10    17     1    1
    11     1     2    2
    12     2     3    1
    13     3    21    1
    14    21    23    1
    15    23    24    2
    16    23    25    2
    17    23    26    1
    18    26    27    1
    19     3     4    2
    20     4     5    1
    21     5     6    2
    22     6     7    1
    23     7     8    2
    24     8     9    1
    25    17    10   ar
    26     9     1    1
    27     8     4    1
    28    13    18    1
    29    21    22    1
@<TRIPOS>MOLECULE
*****
 27 29 0 0 0
SMALL
GASTEIGER

@<TRIPOS>ATOM
      1 C         140.9877  142.7068  166.2167 C.2     1  UNL1       -0.0151
      2 C         140.0950  143.6164  165.4259 C.2     1  UNL1        0.0120
      3 C         140.6437  144.3705  164.2510 C.2     1  UNL1        0.0668
      4 C         142.0853  144.2148  163.8669 C.2     1  UNL1        0.0511
      5 C         142.9023  144.8244  162.7666 C.2     1  UNL1        0.1246
      6 N         144.3001  144.2915  162.8773 N.2     1  UNL1       -0.1466
      7 N         144.3469  143.3525  164.0461 N.2     1  UNL1       -0.1519
      8 C         142.9781  143.3051  164.6577 C.2     1  UNL1        0.0876
      9 C         142.4293  142.5511  165.8326 C.3     1  UNL1        0.0740
     10 C         139.7526  140.6355  167.1831 C.ar    1  UNL1       -0.0193
     11 C         139.2038  139.8815  168.3581 C.ar    1  UNL1        0.0347
     12 C         139.3415  140.4448  169.7414 C.ar    1  UNL1        0.1607
     13 O         138.7928  139.6909  170.9163 O.3     1  UNL1       -0.5034
     14 C         140.0279  141.7622  169.9498 C.ar    1  UNL1        0.1735
     15 F         140.1657  142.3256  171.3332 F       1  UNL1       -0.2010
     16 C         140.5767  142.5161  168.7749 C.ar    1  UNL1        0.0322
     17 C         140.4389  141.9528  167.3916 C.ar    1  UNL1       -0.0051
     18 H         138.3640  138.8680  170.7861 H       1  UNL1        0.2923
     19 C         138.2844  140.1002  165.1075 C.3     1  UNL1        0.0050
     20 C         139.6148  140.0721  165.7998 C.3     1  UNL1        0.0265
     21 N         139.7509  145.2802  163.4602 N.pl3   1  UNL1       -0.2187
     22 H         139.1430  145.8995  163.9252 H       1  UNL1        0.1734
     23 S         139.7841  145.2463  161.9610 S.O2    1  UNL1        0.0539
     24 O         140.0214  146.7271  161.9327 O.2     1  UNL1       -0.1545
     25 O         139.5467  143.7654  161.9894 O.2     1  UNL1       -0.1545
     26 C         139.8173  145.2122  160.4618 C.3     1  UNL1        0.1724
     27 C         140.5480  144.1109  159.7526 C.3     1  UNL1        0.0292
@<TRIPOS>BOND
     1    19    20    1
     2    20    10    1
     3    10    11   ar
     4    11    12   ar
     5    12    13    1
     6    12    14   ar
     7    14    15    1
     8    14    16   ar
     9    16    17   ar
    10    17     1    1
    11     1     2    2
    12     2     3    1
    13     3    21    1
    14    21    23    1
    15    23    24    2
    16    23    25    2
    17    23    26    1
    18    26    27    1
    19     3     4    2
    20     4     5    1
    21     5     6    2
    22     6     7    1
    23     7     8    2
    24     8     9    1
    25    17    10   ar
    26     9     1    1
    27     8     4    1
    28    13    18    1
    29    21    22    1
@<TRIPOS>MOLECULE
*****
 27 29 0 0 0
SMALL
GASTEIGER

@<TRIPOS>ATOM
      1 C         142.5869  140.1866  165.9124 C.2     1  UNL1       -0.0151
      2 C         142.1357  139.2230  164.8553 C.2     1  UNL1        0.0120
      3 C         142.7258  139.2903  163.4778 C.2     1  UNL1        0.0668
      4 C         143.7671  140.3214  163.1577 C.2     1  UNL1        0.0511
      5 C         144.5235  140.6268  161.8988 C.2     1  UNL1        0.1246
      6 N         145.4421  141.7792  162.1781 N.2     1  UNL1       -0.1466
      7 N         145.2535  142.1861  163.6095 N.2     1  UNL1       -0.1519
      8 C         144.2183  141.2851  164.2149 C.2     1  UNL1        0.0876
      9 C         143.6282  141.2177  165.5923 C.3     1  UNL1        0.0740
     10 C         140.6964  140.8067  167.5832 C.ar    1  UNL1       -0.0193
     11 C         140.1062  140.7394  168.9606 C.ar    1  UNL1        0.0347
     12 C         140.8168  139.9845  170.0448 C.ar    1  UNL1        0.1607
     13 O         140.2267  139.9171  171.4222 O.3     1  UNL1       -0.5034
     14 C         142.1173  139.2971  169.7515 C.ar    1  UNL1        0.1735
     15 F         142.8278  138.5422  170.8357 F       1  UNL1       -0.2010
     16 C         142.7073  139.3644  168.3740 C.ar    1  UNL1        0.0322
     17 C         141.9968  140.1193  167.2899 C.ar    1  UNL1       -0.0051
     18 H         139.4143  140.3466  171.6054 H       1  UNL1        0.2923
     19 C         140.1774  143.0435  166.3674 C.3     1  UNL1        0.0050
     20 C         139.9858  141.5616  166.4990 C.3     1  UNL1        0.0265
     21 N         142.2746  138.3266  162.4206 N.pl3   1  UNL1       -0.2187
     22 H         142.9360  137.7792  161.9389 H       1  UNL1        0.1734
     23 S         140.8156  138.1968  162.0975 S.O2    1  UNL1        0.0539
     24 O         140.7857  136.8565  162.7702 O.2     1  UNL1       -0.1545
     25 O         140.8455  139.5372  161.4248 O.2     1  UNL1       -0.1545
     26 C         139.3566  138.0672  161.7743 C.3     1  UNL1        0.1724
     27 C         138.3311  138.6941  162.6718 C.3     1  UNL1        0.0292
@<TRIPOS>BOND
     1    19    20    1
     2    20    10    1
     3    10    11   ar
     4    11    12   ar
     5    12    13    1
     6    12    14   ar
     7    14    15    1
     8    14    16   ar
     9    16    17   ar
    10    17     1    1
    11     1     2    2
    12     2     3    1
    13     3    21    1
    14    21    23    1
    15    23    24    2
    16    23    25    2
    17    23    26    1
    18    26    27    1
    19     3     4    2
    20     4     5    1
    21     5     6    2
    22     6     7    1
    23     7     8    2
    24     8     9    1
    25    17    10   ar
    26     9     1    1
    27     8     4    1
    28    13    18    1
    29    21    22    1
@<TRIPOS>MOLECULE
*****
 27 29 0 0 0
SMALL
GASTEIGER

@<TRIPOS>ATOM
      1 C         141.7921  139.5816  166.0063 C.2     1  UNL1       -0.0151
      2 C         142.5951  140.6137  165.2717 C.2     1  UNL1        0.0120
      3 C         142.8937  140.4331  163.8128 C.2     1  UNL1        0.0668
      4 C         142.3893  139.2202  163.0887 C.2     1  UNL1        0.0511
      5 C         142.5245  138.7740  161.6630 C.2     1  UNL1        0.1246
      6 N         141.8050  137.4660  161.5165 N.2     1  UNL1       -0.1466
      7 N         141.2252  137.1038  162.8516 N.2     1  UNL1       -0.1519
      8 C         141.5863  138.1880  163.8233 C.2     1  UNL1        0.0876
      9 C         141.2877  138.3687  165.2821 C.3     1  UNL1        0.0740
     10 C         140.0851  140.0113  167.9172 C.ar    1  UNL1       -0.0193
     11 C         139.7864  140.1919  169.3761 C.ar    1  UNL1        0.0347
     12 C         140.8962  140.1235  170.3828 C.ar    1  UNL1        0.1607
     13 O         140.5976  140.3041  171.8417 O.3     1  UNL1       -0.5034
     14 C         142.3046  139.8744  169.9308 C.ar    1  UNL1        0.1735
     15 F         143.4145  139.8059  170.9376 F       1  UNL1       -0.2010
     16 C         142.6032  139.6938  168.4720 C.ar    1  UNL1        0.0322
     17 C         141.4934  139.7622  167.4652 C.ar    1  UNL1       -0.0051
     18 H         139.7178  140.4597  172.1241 H       1  UNL1        0.2923
     19 C         138.0242  138.9291  166.7630 C.3     1  UNL1        0.0050
     20 C         138.9753  140.0797  166.9104 C.3     1  UNL1        0.0265
     21 N         143.6968  141.4654  163.0782 N.pl3   1  UNL1       -0.2187
     22 H         144.4577  141.1898  162.5176 H       1  UNL1        0.1734
     23 S         143.3406  142.9175  163.1979 S.O2    1  UNL1        0.0539
     24 O         144.5899  143.1586  163.9923 O.2     1  UNL1       -0.1545
     25 O         142.0913  142.6764  162.4035 O.2     1  UNL1       -0.1545
     26 C         142.9842  144.3696  163.3175 C.3     1  UNL1        0.1724
     27 C         141.6990  144.7747  163.9764 C.3     1  UNL1        0.0292
@<TRIPOS>BOND
     1    19    20    1
     2    20    10    1
     3    10    11   ar
     4    11    12   ar
     5    12    13    1
     6    12    14   ar
     7    14    15    1
     8    14    16   ar
     9    16    17   ar
    10    17     1    1
    11     1     2    2
    12     2     3    1
    13     3    21    1
    14    21    23    1
    15    23    24    2
    16    23    25    2
    17    23    26    1
    18    26    27    1
    19     3     4    2
    20     4     5    1
    21     5     6    2
    22     6     7    1
    23     7     8    2
    24     8     9    1
    25    17    10   ar
    26     9     1    1
    27     8     4    1
    28    13    18    1
    29    21    22    1
@<TRIPOS>MOLECULE
*****
 27 29 0 0 0
SMALL
GASTEIGER

@<TRIPOS>ATOM
      1 C         139.8313  141.1583  165.9697 C.2     1  UNL1       -0.0151
      2 C         139.2292  140.2354  164.9521 C.2     1  UNL1        0.0120
      3 C         138.5042  140.7978  163.7654 C.2     1  UNL1        0.0668
      4 C         138.3814  142.2832  163.5965 C.2     1  UNL1        0.0511
      5 C         137.7298  143.1224  162.5376 C.2     1  UNL1        0.1246
      6 N         137.9293  144.5640  162.9009 N.2     1  UNL1       -0.1466
      7 N         138.7042  144.6157  164.1842 N.2     1  UNL1       -0.1519
      8 C         138.9836  143.2061  164.6141 C.2     1  UNL1        0.0876
      9 C         139.7085  142.6437  165.8007 C.3     1  UNL1        0.0740
     10 C         141.9790  140.1411  167.0198 C.ar    1  UNL1       -0.0193
     11 C         142.7040  139.5787  168.2065 C.ar    1  UNL1        0.0347
     12 C         142.0060  139.4711  169.5298 C.ar    1  UNL1        0.1607
     13 O         142.7309  138.9087  170.7165 O.3     1  UNL1       -0.5034
     14 C         140.5832  139.9259  169.6665 C.ar    1  UNL1        0.1735
     15 F         139.8852  139.8183  170.9899 F       1  UNL1       -0.2010
     16 C         139.8583  140.4883  168.4798 C.ar    1  UNL1        0.0322
     17 C         140.5563  140.5959  167.1564 C.ar    1  UNL1       -0.0051
     18 H         143.6197  138.6247  170.6311 H       1  UNL1        0.2923
     19 C         143.3247  139.0395  165.0895 C.3     1  UNL1        0.0050
     20 C         142.6770  140.2487  165.6964 C.3     1  UNL1        0.0265
     21 N         137.9020  139.8748  162.7478 N.pl3   1  UNL1       -0.2187
     22 H         136.9300  139.8814  162.5914 H       1  UNL1        0.1734
     23 S         138.7808  138.9418  161.9686 S.O2    1  UNL1        0.0539
     24 O         139.4254  140.1146  161.2911 O.2     1  UNL1       -0.1545
     25 O         138.1361  137.7690  162.6460 O.2     1  UNL1       -0.1545
     26 C         139.6595  138.0087  161.1894 C.3     1  UNL1        0.1724
     27 C         141.1485  138.0604  161.3629 C.3     1  UNL1        0.0292
@<TRIPOS>BOND
     1    19    20    1
     2    20    10    1
     3    10    11   ar
     4    11    12   ar
     5    12    13    1
     6    12    14   ar
     7    14    15    1
     8    14    16   ar
     9    16    17   ar
    10    17     1    1
    11     1     2    2
    12     2     3    1
    13     3    21    1
    14    21    23    1
    15    23    24    2
    16    23    25    2
    17    23    26    1
    18    26    27    1
    19     3     4    2
    20     4     5    1
    21     5     6    2
    22     6     7    1
    23     7     8    2
    24     8     9    1
    25    17    10   ar
    26     9     1    1
    27     8     4    1
    28    13    18    1
    29    21    22    1
@<TRIPOS>MOLECULE
*****
 27 29 0 0 0
SMALL
GASTEIGER

@<TRIPOS>ATOM
      1 C         142.6107  142.2098  165.9757 C.2     1  UNL1       -0.0151
      2 C         141.3257  142.7571  165.4289 C.2     1  UNL1        0.0120
      3 C         141.2768  143.3029  164.0325 C.2     1  UNL1        0.0668
      4 C         142.5130  143.3014  163.1830 C.2     1  UNL1        0.0511
      5 C         142.7678  143.7694  161.7809 C.2     1  UNL1        0.1246
      6 N         144.2104  143.5113  161.4611 N.2     1  UNL1       -0.1466
      7 N         144.8472  142.8838  162.6656 N.2     1  UNL1       -0.1519
      8 C         143.7981  142.7541  163.7299 C.2     1  UNL1        0.0876
      9 C         143.8470  142.2083  165.1262 C.3     1  UNL1        0.0740
     10 C         142.5436  140.1868  167.6044 C.ar    1  UNL1       -0.0193
     11 C         142.5925  139.6409  169.0008 C.ar    1  UNL1        0.0347
     12 C         142.7575  140.5726  170.1647 C.ar    1  UNL1        0.1607
     13 O         142.8064  140.0268  171.5611 O.3     1  UNL1       -0.5034
     14 C         142.8735  142.0499  169.9324 C.ar    1  UNL1        0.1735
     15 F         143.0385  142.9816  171.0964 F       1  UNL1       -0.2010
     16 C         142.8246  142.5956  168.5360 C.ar    1  UNL1        0.0322
     17 C         142.6596  141.6640  167.3721 C.ar    1  UNL1       -0.0051
     18 H         142.7339  139.1040  171.7062 H       1  UNL1        0.2923
     19 C         143.4985  138.3366  166.0502 C.3     1  UNL1        0.0050
     20 C         142.3786  139.2551  166.4404 C.3     1  UNL1        0.0265
     21 N         139.9916  143.8502  163.4858 N.pl3   1  UNL1       -0.2187
     22 H         139.9608  144.7651  163.1234 H       1  UNL1        0.1734
     23 S         138.7534  143.0036  163.4912 S.O2    1  UNL1        0.0539
     24 O         139.3882  142.0687  162.5048 O.2     1  UNL1       -0.1545
     25 O         138.1186  143.9386  164.4776 O.2     1  UNL1       -0.1545
     26 C         137.5151  142.1571  163.4967 C.3     1  UNL1        0.1724
     27 C         137.5810  140.7289  163.0429 C.3     1  UNL1        0.0292
@<TRIPOS>BOND
     1    19    20    1
     2    20    10    1
     3    10    11   ar
     4    11    12   ar
     5    12    13    1
     6    12    14   ar
     7    14    15    1
     8    14    16   ar
     9    16    17   ar
    10    17     1    1
    11     1     2    2
    12     2     3    1
    13     3    21    1
    14    21    23    1
    15    23    24    2
    16    23    25    2
    17    23    26    1
    18    26    27    1
    19     3     4    2
    20     4     5    1
    21     5     6    2
    22     6     7    1
    23     7     8    2
    24     8     9    1
    25    17    10   ar
    26     9     1    1
    27     8     4    1
    28    13    18    1
    29    21    22    1
