@<TRIPOS>MOLECULE
*****
 25 28 0 0 0
SMALL
GASTEIGER

@<TRIPOS>ATOM
      1 O         142.1185  137.6244  165.2635 O.2     1  UNL1       -0.2523
      2 C         141.2938  137.7668  164.0187 C.2     1  UNL1        0.3076
      3 N         139.7970  137.7069  163.9411 N.am    1  UNL1       -0.2609
      4 C         139.3992  137.8972  162.5073 C.3     1  UNL1        0.1165
      5 C         140.6502  138.0747  161.6989 C.3     1  UNL1        0.1168
      6 N         141.8211  137.9941  162.6329 N.am    1  UNL1       -0.2582
      7 C         138.8621  137.4940  165.0947 C.3     1  UNL1        0.1123
      8 C         138.4521  138.6547  165.9518 C.3     1  UNL1        0.0944
      9 N         138.5692  140.0543  165.4251 N.3     1  UNL1       -0.2637
     10 C         137.7248  140.6635  164.3453 C.3     1  UNL1        0.0992
     11 C         138.1850  142.0761  164.1386 C.ar    1  UNL1       -0.0088
     12 C         137.7220  143.1563  163.2065 C.ar    1  UNL1       -0.0032
     13 C         138.3878  144.5002  163.2263 C.ar    1  UNL1       -0.0003
     14 C         139.5165  144.7641  164.1783 C.ar    1  UNL1       -0.0003
     15 C         139.9795  143.6839  165.1104 C.ar    1  UNL1       -0.0032
     16 C         139.3138  142.3400  165.0905 C.ar    1  UNL1       -0.0088
     17 C         139.5512  141.0904  165.8856 C.3     1  UNL1        0.0992
     18 C         143.2656  138.1190  162.2487 C.3     1  UNL1        0.1218
     19 C         144.0217  139.3737  162.5710 C.ar    1  UNL1       -0.0014
     20 C         144.7419  139.4999  163.8806 C.ar    1  UNL1       -0.0026
     21 C         145.4981  140.7546  164.2030 C.ar    1  UNL1        0.0006
     22 C         145.5339  141.8832  163.2156 C.ar    1  UNL1        0.0114
     23 C         144.8137  141.7571  161.9059 C.ar    1  UNL1        0.0574
     24 CL        144.8495  142.8857  160.9185 Cl      1  UNL1       -0.0823
     25 C         144.0575  140.5023  161.5836 C.ar    1  UNL1        0.0088
@<TRIPOS>BOND
     1     1     2    2
     2     2     3   am
     3     3     7    1
     4     7     8    1
     5     8     9    1
     6     9    10    1
     7    10    11    1
     8    11    12   ar
     9    12    13   ar
    10    13    14   ar
    11    14    15   ar
    12    15    16   ar
    13    16    17    1
    14     3     4    1
    15     4     5    1
    16     5     6    1
    17     6    18    1
    18    18    19    1
    19    19    20   ar
    20    20    21   ar
    21    21    22   ar
    22    22    23   ar
    23    23    24    1
    24    23    25   ar
    25     6     2   am
    26    25    19   ar
    27    17     9    1
    28    16    11   ar
@<TRIPOS>MOLECULE
*****
 25 28 0 0 0
SMALL
GASTEIGER

@<TRIPOS>ATOM
      1 O         140.8879  141.6536  162.0683 O.2     1  UNL1       -0.2523
      2 C         139.9930  142.7890  162.4684 C.2     1  UNL1        0.3076
      3 N         140.4118  144.2165  162.6601 N.am    1  UNL1       -0.2609
      4 C         139.1997  145.0059  163.0573 C.3     1  UNL1        0.1165
      5 C         138.0317  144.0661  163.1110 C.3     1  UNL1        0.1168
      6 N         138.5220  142.6960  162.7471 N.am    1  UNL1       -0.2582
      7 C         141.7992  144.7593  162.4854 C.3     1  UNL1        0.1123
      8 C         142.8315  144.5363  163.5505 C.3     1  UNL1        0.0944
      9 N         142.9498  143.1948  164.2111 N.3     1  UNL1       -0.2637
     10 C         143.8402  142.0707  163.7711 C.3     1  UNL1        0.0992
     11 C         143.6392  140.9230  164.7158 C.ar    1  UNL1       -0.0088
     12 C         144.2490  139.5539  164.7759 C.ar    1  UNL1       -0.0032
     13 C         143.8441  138.5996  165.8600 C.ar    1  UNL1       -0.0003
     14 C         142.8294  139.0144  166.8839 C.ar    1  UNL1       -0.0003
     15 C         142.2197  140.3835  166.8238 C.ar    1  UNL1       -0.0032
     16 C         142.6245  141.3378  165.7397 C.ar    1  UNL1       -0.0088
     17 C         142.1985  142.7418  165.4278 C.3     1  UNL1        0.0992
     18 C         137.6878  141.4516  162.6745 C.3     1  UNL1        0.1218
     19 C         138.0771  140.2403  163.4689 C.ar    1  UNL1       -0.0014
     20 C         138.3968  138.9539  162.7668 C.ar    1  UNL1       -0.0026
     21 C         138.7861  137.7425  163.5611 C.ar    1  UNL1        0.0006
     22 C         138.8558  137.8176  165.0576 C.ar    1  UNL1        0.0114
     23 C         138.5361  139.1039  165.7598 C.ar    1  UNL1        0.0574
     24 CL        138.6058  139.1790  167.2563 Cl      1  UNL1       -0.0823
     25 C         138.1468  140.3153  164.9654 C.ar    1  UNL1        0.0088
@<TRIPOS>BOND
     1     1     2    2
     2     2     3   am
     3     3     7    1
     4     7     8    1
     5     8     9    1
     6     9    10    1
     7    10    11    1
     8    11    12   ar
     9    12    13   ar
    10    13    14   ar
    11    14    15   ar
    12    15    16   ar
    13    16    17    1
    14     3     4    1
    15     4     5    1
    16     5     6    1
    17     6    18    1
    18    18    19    1
    19    19    20   ar
    20    20    21   ar
    21    21    22   ar
    22    22    23   ar
    23    23    24    1
    24    23    25   ar
    25     6     2   am
    26    25    19   ar
    27    17     9    1
    28    16    11   ar
@<TRIPOS>MOLECULE
*****
 25 28 0 0 0
SMALL
GASTEIGER

@<TRIPOS>ATOM
      1 O         141.9920  140.7651  162.0933 O.2     1  UNL1       -0.2523
      2 C         143.1933  140.4748  162.9433 C.2     1  UNL1        0.3076
      3 N         144.4468  141.2960  163.0081 N.am    1  UNL1       -0.2609
      4 C         145.3803  140.6410  163.9827 C.3     1  UNL1        0.1165
      5 C         144.7036  139.4150  164.5202 C.3     1  UNL1        0.1168
      6 N         143.3520  139.3122  163.8779 N.am    1  UNL1       -0.2582
      7 C         144.7192  142.5518  162.2342 C.3     1  UNL1        0.1123
      8 C         144.1384  143.8564  162.6931 C.3     1  UNL1        0.0944
      9 N         142.6807  143.9499  163.0339 N.3     1  UNL1       -0.2637
     10 C         141.5616  144.1865  162.0635 C.3     1  UNL1        0.0992
     11 C         140.2753  144.2060  162.8349 C.ar    1  UNL1       -0.0088
     12 C         138.8509  144.3992  162.4064 C.ar    1  UNL1       -0.0032
     13 C         137.7505  144.3680  163.4253 C.ar    1  UNL1       -0.0003
     14 C         138.0745  144.1435  164.8726 C.ar    1  UNL1       -0.0003
     15 C         139.4990  143.9503  165.3010 C.ar    1  UNL1       -0.0032
     16 C         140.5994  143.9816  164.2822 C.ar    1  UNL1       -0.0088
     17 C         142.0859  143.8233  164.4052 C.3     1  UNL1        0.0992
     18 C         142.3373  138.2359  164.1264 C.3     1  UNL1        0.1218
     19 C         141.1039  138.5379  164.9249 C.ar    1  UNL1       -0.0014
     20 C         139.8569  137.7319  164.7124 C.ar    1  UNL1       -0.0026
     21 C         138.6235  138.0338  165.5109 C.ar    1  UNL1        0.0006
     22 C         138.6372  139.1418  166.5219 C.ar    1  UNL1        0.0114
     23 C         139.8842  139.9478  166.7345 C.ar    1  UNL1        0.0574
     24 CL        139.8979  141.0558  167.7456 Cl      1  UNL1       -0.0823
     25 C         141.1176  139.6459  165.9360 C.ar    1  UNL1        0.0088
@<TRIPOS>BOND
     1     1     2    2
     2     2     3   am
     3     3     7    1
     4     7     8    1
     5     8     9    1
     6     9    10    1
     7    10    11    1
     8    11    12   ar
     9    12    13   ar
    10    13    14   ar
    11    14    15   ar
    12    15    16   ar
    13    16    17    1
    14     3     4    1
    15     4     5    1
    16     5     6    1
    17     6    18    1
    18    18    19    1
    19    19    20   ar
    20    20    21   ar
    21    21    22   ar
    22    22    23   ar
    23    23    24    1
    24    23    25   ar
    25     6     2   am
    26    25    19   ar
    27    17     9    1
    28    16    11   ar
@<TRIPOS>MOLECULE
*****
 25 28 0 0 0
SMALL
GASTEIGER

@<TRIPOS>ATOM
      1 O         138.8655  138.4951  164.8637 O.2     1  UNL1       -0.2523
      2 C         139.9126  138.2861  163.8102 C.2     1  UNL1        0.3076
      3 N         139.6672  138.1616  162.3356 N.am    1  UNL1       -0.2609
      4 C         140.9920  137.9634  161.6604 C.3     1  UNL1        0.1165
      5 C         142.0560  137.9654  162.7177 C.3     1  UNL1        0.1168
      6 N         141.3889  138.1648  164.0463 N.am    1  UNL1       -0.2582
      7 C         138.3317  138.2242  161.6557 C.3     1  UNL1        0.1123
      8 C         137.7169  139.5534  161.3311 C.3     1  UNL1        0.0944
      9 N         138.1369  140.7787  162.0875 N.3     1  UNL1       -0.2637
     10 C         137.3489  141.4630  163.1650 C.3     1  UNL1        0.0992
     11 C         138.1436  142.6421  163.6427 C.ar    1  UNL1       -0.0088
     12 C         137.8677  143.6810  164.6888 C.ar    1  UNL1       -0.0032
     13 C         138.8709  144.7644  164.9528 C.ar    1  UNL1       -0.0003
     14 C         140.1500  144.8089  164.1706 C.ar    1  UNL1       -0.0003
     15 C         140.4259  143.7700  163.1244 C.ar    1  UNL1       -0.0032
     16 C         139.4227  142.6866  162.8605 C.ar    1  UNL1       -0.0088
     17 C         139.4186  141.5350  161.8994 C.3     1  UNL1        0.0992
     18 C         142.0773  138.2313  165.3773 C.3     1  UNL1        0.1218
     19 C         142.1404  139.5301  166.1250 C.ar    1  UNL1       -0.0014
     20 C         141.7374  140.8061  165.4473 C.ar    1  UNL1       -0.0026
     21 C         141.8004  142.1049  166.1949 C.ar    1  UNL1        0.0006
     22 C         142.2665  142.1277  167.6205 C.ar    1  UNL1        0.0114
     23 C         142.6695  140.8518  168.2984 C.ar    1  UNL1        0.0574
     24 CL        143.1356  140.8746  169.7240 Cl      1  UNL1       -0.0823
     25 C         142.6065  139.5529  167.5506 C.ar    1  UNL1        0.0088
@<TRIPOS>BOND
     1     1     2    2
     2     2     3   am
     3     3     7    1
     4     7     8    1
     5     8     9    1
     6     9    10    1
     7    10    11    1
     8    11    12   ar
     9    12    13   ar
    10    13    14   ar
    11    14    15   ar
    12    15    16   ar
    13    16    17    1
    14     3     4    1
    15     4     5    1
    16     5     6    1
    17     6    18    1
    18    18    19    1
    19    19    20   ar
    20    20    21   ar
    21    21    22   ar
    22    22    23   ar
    23    23    24    1
    24    23    25   ar
    25     6     2   am
    26    25    19   ar
    27    17     9    1
    28    16    11   ar
@<TRIPOS>MOLECULE
*****
 25 28 0 0 0
SMALL
GASTEIGER

@<TRIPOS>ATOM
      1 O         141.3678  143.9580  164.6770 O.2     1  UNL1       -0.2523
      2 C         141.2427  144.2122  163.2040 C.2     1  UNL1        0.3076
      3 N         140.0022  144.6587  162.4886 N.am    1  UNL1       -0.2609
      4 C         140.3290  144.7870  161.0302 C.3     1  UNL1        0.1165
      5 C         141.7714  144.4198  160.8444 C.3     1  UNL1        0.1168
      6 N         142.3361  144.0645  162.1878 N.am    1  UNL1       -0.2582
      7 C         138.6690  144.9294  163.1205 C.3     1  UNL1        0.1123
      8 C         137.5800  143.9008  163.0438 C.3     1  UNL1        0.0944
      9 N         137.8889  142.4593  163.3209 N.3     1  UNL1       -0.2637
     10 C         138.2027  141.8670  164.6628 C.3     1  UNL1        0.0992
     11 C         138.4460  140.3987  164.4759 C.ar    1  UNL1       -0.0088
     12 C         138.7952  139.3080  165.4445 C.ar    1  UNL1       -0.0032
     13 C         138.9810  137.9021  164.9558 C.ar    1  UNL1       -0.0003
     14 C         138.8176  137.5869  163.4984 C.ar    1  UNL1       -0.0003
     15 C         138.4683  138.6777  162.5298 C.ar    1  UNL1       -0.0032
     16 C         138.2825  140.0836  163.0185 C.ar    1  UNL1       -0.0088
     17 C         137.9382  141.3571  162.3047 C.3     1  UNL1        0.0992
     18 C         143.7466  143.6367  162.4662 C.3     1  UNL1        0.1218
     19 C         144.0255  142.2485  162.9612 C.ar    1  UNL1       -0.0014
     20 C         145.3315  141.9394  163.6309 C.ar    1  UNL1       -0.0026
     21 C         145.6104  140.5512  164.1260 C.ar    1  UNL1        0.0006
     22 C         144.5832  139.4721  163.9514 C.ar    1  UNL1        0.0114
     23 C         143.2771  139.7812  163.2817 C.ar    1  UNL1        0.0574
     24 CL        142.2499  138.7022  163.1070 Cl      1  UNL1       -0.0823
     25 C         142.9982  141.1695  162.7866 C.ar    1  UNL1        0.0088
@<TRIPOS>BOND
     1     1     2    2
     2     2     3   am
     3     3     7    1
     4     7     8    1
     5     8     9    1
     6     9    10    1
     7    10    11    1
     8    11    12   ar
     9    12    13   ar
    10    13    14   ar
    11    14    15   ar
    12    15    16   ar
    13    16    17    1
    14     3     4    1
    15     4     5    1
    16     5     6    1
    17     6    18    1
    18    18    19    1
    19    19    20   ar
    20    20    21   ar
    21    21    22   ar
    22    22    23   ar
    23    23    24    1
    24    23    25   ar
    25     6     2   am
    26    25    19   ar
    27    17     9    1
    28    16    11   ar
@<TRIPOS>MOLECULE
*****
 25 28 0 0 0
SMALL
GASTEIGER

@<TRIPOS>ATOM
      1 O         139.8784  143.0219  166.1122 O.2     1  UNL1       -0.2523
      2 C         139.0098  142.5342  164.9907 C.2     1  UNL1        0.3076
      3 N         138.5631  143.3400  163.8070 N.am    1  UNL1       -0.2609
      4 C         137.7125  142.4589  162.9408 C.3     1  UNL1        0.1165
      5 C         137.6336  141.1085  163.5892 C.3     1  UNL1        0.1168
      6 N         138.4354  141.1551  164.8561 N.am    1  UNL1       -0.2582
      7 C         138.9065  144.7750  163.5370 C.3     1  UNL1        0.1123
      8 C         140.2040  145.1228  162.8696 C.3     1  UNL1        0.0944
      9 N         141.3891  144.2147  163.0146 N.3     1  UNL1       -0.2637
     10 C         142.4685  144.3322  164.0495 C.3     1  UNL1        0.0992
     11 C         143.4493  143.2197  163.8246 C.ar    1  UNL1       -0.0088
     12 C         144.7122  142.8358  164.5371 C.ar    1  UNL1       -0.0032
     13 C         145.5018  141.6469  164.0757 C.ar    1  UNL1       -0.0003
     14 C         145.0286  140.8419  162.9018 C.ar    1  UNL1       -0.0003
     15 C         143.7657  141.2258  162.1894 C.ar    1  UNL1       -0.0032
     16 C         142.9761  142.4147  162.6507 C.ar    1  UNL1       -0.0088
     17 C         141.7028  143.0297  162.1501 C.3     1  UNL1        0.0992
     18 C         138.6287  140.0215  165.8192 C.3     1  UNL1        0.1218
     19 C         139.9452  139.8460  166.5163 C.ar    1  UNL1       -0.0014
     20 C         140.0467  140.0727  167.9955 C.ar    1  UNL1       -0.0026
     21 C         141.3632  139.8972  168.6928 C.ar    1  UNL1        0.0006
     22 C         142.5782  139.4948  167.9106 C.ar    1  UNL1        0.0114
     23 C         142.4768  139.2679  166.4313 C.ar    1  UNL1        0.0574
     24 CL        143.6918  138.8656  165.6492 Cl      1  UNL1       -0.0823
     25 C         141.1603  139.4436  165.7342 C.ar    1  UNL1        0.0088
@<TRIPOS>BOND
     1     1     2    2
     2     2     3   am
     3     3     7    1
     4     7     8    1
     5     8     9    1
     6     9    10    1
     7    10    11    1
     8    11    12   ar
     9    12    13   ar
    10    13    14   ar
    11    14    15   ar
    12    15    16   ar
    13    16    17    1
    14     3     4    1
    15     4     5    1
    16     5     6    1
    17     6    18    1
    18    18    19    1
    19    19    20   ar
    20    20    21   ar
    21    21    22   ar
    22    22    23   ar
    23    23    24    1
    24    23    25   ar
    25     6     2   am
    26    25    19   ar
    27    17     9    1
    28    16    11   ar
@<TRIPOS>MOLECULE
*****
 25 28 0 0 0
SMALL
GASTEIGER

@<TRIPOS>ATOM
      1 O         143.4000  142.8492  165.4943 O.2     1  UNL1       -0.2523
      2 C         143.5567  142.7428  164.0063 C.2     1  UNL1        0.3076
      3 N         144.5337  141.8638  163.2832 N.am    1  UNL1       -0.2609
      4 C         144.3446  142.0745  161.8101 C.3     1  UNL1        0.1165
      5 C         143.2507  143.0837  161.6228 C.3     1  UNL1        0.1168
      6 N         142.7638  143.4967  162.9802 N.am    1  UNL1       -0.2582
      7 C         145.5256  140.9369  163.9211 C.3     1  UNL1        0.1123
      8 C         145.0967  139.5699  164.3651 C.3     1  UNL1        0.0944
      9 N         143.6549  139.1678  164.2683 N.3     1  UNL1       -0.2637
     10 C         142.6170  139.3434  165.3370 C.3     1  UNL1        0.0992
     11 C         141.3184  138.8037  164.8151 C.ar    1  UNL1       -0.0088
     12 C         139.9520  138.7101  165.4269 C.ar    1  UNL1       -0.0032
     13 C         138.8210  138.1074  164.6475 C.ar    1  UNL1       -0.0003
     14 C         139.0563  137.5983  163.2563 C.ar    1  UNL1       -0.0003
     15 C         140.4226  137.6919  162.6445 C.ar    1  UNL1       -0.0032
     16 C         141.5537  138.2946  163.4239 C.ar    1  UNL1       -0.0088
     17 C         142.9977  138.5196  163.0860 C.3     1  UNL1        0.0992
     18 C         141.6751  144.4894  163.2618 C.3     1  UNL1        0.1218
     19 C         140.3020  144.0119  163.6315 C.ar    1  UNL1       -0.0014
     20 C         139.4694  144.7994  164.5991 C.ar    1  UNL1       -0.0026
     21 C         138.0963  144.3220  164.9689 C.ar    1  UNL1        0.0006
     22 C         137.5559  143.0570  164.3709 C.ar    1  UNL1        0.0114
     23 C         138.3885  142.2693  163.4032 C.ar    1  UNL1        0.0574
     24 CL        137.8481  141.0043  162.8052 Cl      1  UNL1       -0.0823
     25 C         139.7617  142.7468  163.0335 C.ar    1  UNL1        0.0088
@<TRIPOS>BOND
     1     1     2    2
     2     2     3   am
     3     3     7    1
     4     7     8    1
     5     8     9    1
     6     9    10    1
     7    10    11    1
     8    11    12   ar
     9    12    13   ar
    10    13    14   ar
    11    14    15   ar
    12    15    16   ar
    13    16    17    1
    14     3     4    1
    15     4     5    1
    16     5     6    1
    17     6    18    1
    18    18    19    1
    19    19    20   ar
    20    20    21   ar
    21    21    22   ar
    22    22    23   ar
    23    23    24    1
    24    23    25   ar
    25     6     2   am
    26    25    19   ar
    27    17     9    1
    28    16    11   ar
@<TRIPOS>MOLECULE
*****
 25 28 0 0 0
SMALL
GASTEIGER

@<TRIPOS>ATOM
      1 O         143.4270  139.3795  165.0434 O.2     1  UNL1       -0.2523
      2 C         143.5162  139.5887  163.5607 C.2     1  UNL1        0.3076
      3 N         144.5067  140.4642  162.8518 N.am    1  UNL1       -0.2609
      4 C         144.2332  140.3756  161.3795 C.3     1  UNL1        0.1165
      5 C         143.0737  139.4454  161.1786 C.3     1  UNL1        0.1168
      6 N         142.6306  138.9591  162.5266 N.am    1  UNL1       -0.2582
      7 C         145.5818  141.2842  163.5011 C.3     1  UNL1        0.1123
      8 C         145.2215  142.5241  164.2645 C.3     1  UNL1        0.0944
      9 N         143.8142  143.0422  164.2324 N.3     1  UNL1       -0.2637
     10 C         142.7595  142.7944  165.2697 C.3     1  UNL1        0.0992
     11 C         141.5080  143.4982  164.8357 C.ar    1  UNL1       -0.0088
     12 C         140.1486  143.6055  165.4606 C.ar    1  UNL1       -0.0032
     13 C         139.0705  144.3957  164.7800 C.ar    1  UNL1       -0.0003
     14 C         139.3518  145.0785  163.4744 C.ar    1  UNL1       -0.0003
     15 C         140.7111  144.9712  162.8494 C.ar    1  UNL1       -0.0032
     16 C         141.7892  144.1810  163.5301 C.ar    1  UNL1       -0.0088
     17 C         143.2146  143.8992  163.1572 C.3     1  UNL1        0.0992
     18 C         141.5004  138.0098  162.7936 C.3     1  UNL1        0.1218
     19 C         140.3430  138.4420  163.6443 C.ar    1  UNL1       -0.0014
     20 C         139.9466  137.6287  164.8406 C.ar    1  UNL1       -0.0026
     21 C         138.7892  138.0608  165.6913 C.ar    1  UNL1        0.0006
     22 C         138.0282  139.3063  165.3456 C.ar    1  UNL1        0.0114
     23 C         138.4246  140.1198  164.1493 C.ar    1  UNL1        0.0574
     24 CL        137.6636  141.3653  163.8035 Cl      1  UNL1       -0.0823
     25 C         139.5820  139.6875  163.2986 C.ar    1  UNL1        0.0088
@<TRIPOS>BOND
     1     1     2    2
     2     2     3   am
     3     3     7    1
     4     7     8    1
     5     8     9    1
     6     9    10    1
     7    10    11    1
     8    11    12   ar
     9    12    13   ar
    10    13    14   ar
    11    14    15   ar
    12    15    16   ar
    13    16    17    1
    14     3     4    1
    15     4     5    1
    16     5     6    1
    17     6    18    1
    18    18    19    1
    19    19    20   ar
    20    20    21   ar
    21    21    22   ar
    22    22    23   ar
    23    23    24    1
    24    23    25   ar
    25     6     2   am
    26    25    19   ar
    27    17     9    1
    28    16    11   ar
@<TRIPOS>MOLECULE
*****
 25 28 0 0 0
SMALL
GASTEIGER

@<TRIPOS>ATOM
      1 O         143.4898  140.1091  164.9785 O.2     1  UNL1       -0.2523
      2 C         143.3988  139.9119  163.4943 C.2     1  UNL1        0.3076
      3 N         144.1699  140.6707  162.4552 N.am    1  UNL1       -0.2609
      4 C         143.7684  140.1491  161.1073 C.3     1  UNL1        0.1165
      5 C         142.7492  139.0680  161.3134 C.3     1  UNL1        0.1168
      6 N         142.5208  138.9214  162.7887 N.am    1  UNL1       -0.2582
      7 C         145.1674  141.7598  162.7178 C.3     1  UNL1        0.1123
      8 C         144.6989  143.1653  162.9521 C.3     1  UNL1        0.0944
      9 N         143.2502  143.4363  163.2310 N.3     1  UNL1       -0.2637
     10 C         142.2066  143.7861  162.2119 C.3     1  UNL1        0.0992
     11 C         140.9021  143.9711  162.9290 C.ar    1  UNL1       -0.0088
     12 C         139.5288  144.3235  162.4394 C.ar    1  UNL1       -0.0032
     13 C         138.3929  144.4406  163.4120 C.ar    1  UNL1       -0.0003
     14 C         138.6304  144.2053  164.8743 C.ar    1  UNL1       -0.0003
     15 C         140.0037  143.8529  165.3639 C.ar    1  UNL1       -0.0032
     16 C         141.1396  143.7358  164.3913 C.ar    1  UNL1       -0.0088
     17 C         142.5907  143.4053  164.5779 C.3     1  UNL1        0.0992
     18 C         141.5796  137.9542  163.4433 C.3     1  UNL1        0.1218
     19 C         140.3891  138.4625  164.2011 C.ar    1  UNL1       -0.0014
     20 C         139.9829  139.9015  164.0824 C.ar    1  UNL1       -0.0026
     21 C         138.7924  140.4098  164.8403 C.ar    1  UNL1        0.0006
     22 C         138.0081  139.4790  165.7169 C.ar    1  UNL1        0.0114
     23 C         138.4142  138.0399  165.8357 C.ar    1  UNL1        0.0574
     24 CL        137.6300  137.1091  166.7123 Cl      1  UNL1       -0.0823
     25 C         139.6048  137.5317  165.0778 C.ar    1  UNL1        0.0088
@<TRIPOS>BOND
     1     1     2    2
     2     2     3   am
     3     3     7    1
     4     7     8    1
     5     8     9    1
     6     9    10    1
     7    10    11    1
     8    11    12   ar
     9    12    13   ar
    10    13    14   ar
    11    14    15   ar
    12    15    16   ar
    13    16    17    1
    14     3     4    1
    15     4     5    1
    16     5     6    1
    17     6    18    1
    18    18    19    1
    19    19    20   ar
    20    20    21   ar
    21    21    22   ar
    22    22    23   ar
    23    23    24    1
    24    23    25   ar
    25     6     2   am
    26    25    19   ar
    27    17     9    1
    28    16    11   ar
