@<TRIPOS>MOLECULE
*****
 38 42 0 0 0
SMALL
GASTEIGER

@<TRIPOS>ATOM
      1 N         140.0453  141.9561  166.9792 N.ar    1  UNL1       -0.2956
      2 C         139.3628  140.6770  166.5945 C.ar    1  UNL1        0.1981
      3 N         140.0249  139.5561  167.3396 N.ar    1  UNL1       -0.2138
      4 C         141.1166  140.1424  168.1848 C.ar    1  UNL1        0.0999
      5 C         142.1008  139.5172  169.1284 C.ar    1  UNL1        0.0207
      6 C         143.0976  140.3754  169.8494 C.ar    1  UNL1        0.0016
      7 C         143.1103  141.8587  169.6267 C.ar    1  UNL1        0.0016
      8 C         142.1261  142.4839  168.6830 C.ar    1  UNL1        0.0188
      9 C         141.1292  141.6257  167.9621 C.ar    1  UNL1        0.0801
     10 N         138.2190  140.5424  165.6334 N.pl3   1  UNL1       -0.3058
     11 H         137.3084  140.7899  165.9142 H       1  UNL1        0.1495
     12 C         138.4626  140.0308  164.2446 C.3     1  UNL1        0.0745
     13 C         138.3805  140.9669  163.0753 C.3     1  UNL1        0.0369
     14 C         138.6241  140.4554  161.6865 C.3     1  UNL1        0.0738
     15 N         138.9498  139.0077  161.4668 N.3     1  UNL1       -0.2723
     16 C         139.0318  138.0716  162.6360 C.3     1  UNL1        0.0738
     17 C         138.7883  138.5832  164.0249 C.3     1  UNL1        0.0369
     18 C         139.1933  138.4962  160.0779 C.3     1  UNL1        0.0768
     19 C         140.5784  138.5183  159.5026 C.3     1  UNL1        0.0437
     20 C         141.7000  139.1507  160.2721 C.ar    1  UNL1       -0.0207
     21 C         142.0608  140.5862  160.0286 C.ar    1  UNL1       -0.0035
     22 C         143.1824  141.2186  160.7980 C.ar    1  UNL1        0.0100
     23 C         143.9433  140.4155  161.8110 C.ar    1  UNL1        0.0684
     24 C         143.5826  138.9800  162.0545 C.ar    1  UNL1        0.0100
     25 C         142.4609  138.3476  161.2850 C.ar    1  UNL1       -0.0035
     26 C         145.0648  141.0478  162.5805 C.1     1  UNL1        0.1004
     27 N         146.1865  141.6802  163.3500 N.1     1  UNL1       -0.1908
     28 C         139.7039  143.3252  166.4704 C.3     1  UNL1        0.1354
     29 C         140.6550  144.4472  162.2176 C.ar    1  UNL1        0.1057
     30 C         141.5031  143.4391  162.9349 C.ar    1  UNL1        0.0181
     31 C         141.1860  143.0651  164.3525 C.ar    1  UNL1       -0.0011
     32 C         140.0209  143.6992  165.0529 C.ar    1  UNL1        0.0005
     33 C         139.1729  144.7074  164.3356 C.ar    1  UNL1       -0.0011
     34 C         139.4900  145.0813  162.9180 C.ar    1  UNL1        0.0181
     35 C         141.2892  145.1952  159.3824 C.3     1  UNL1        0.1816
     36 S         140.9721  144.8212  160.8000 S.O2    1  UNL1        0.0104
     37 O         142.4336  144.6256  161.0753 O.2     1  UNL1       -0.1686
     38 O         139.5106  145.0168  160.5246 O.2     1  UNL1       -0.1686
@<TRIPOS>BOND
     1    35    36    1
     2    36    37    2
     3    36    38    2
     4    36    29    1
     5    29    30   ar
     6    30    31   ar
     7    31    32   ar
     8    32    28    1
     9    28     1    1
    10     1     2   ar
    11     2    10    1
    12    10    12    1
    13    12    13    1
    14    13    14    1
    15    14    15    1
    16    15    18    1
    17    18    19    1
    18    19    20    1
    19    20    21   ar
    20    21    22   ar
    21    22    23   ar
    22    23    26    1
    23    26    27    3
    24    23    24   ar
    25    24    25   ar
    26    15    16    1
    27    16    17    1
    28     2     3   ar
    29     3     4   ar
    30     4     5   ar
    31     5     6   ar
    32     6     7   ar
    33     7     8   ar
    34     8     9   ar
    35    32    33   ar
    36    33    34   ar
    37    34    29   ar
    38     9     1   ar
    39    17    12    1
    40     9     4   ar
    41    25    20   ar
    42    10    11    1
@<TRIPOS>MOLECULE
*****
 38 42 0 0 0
SMALL
GASTEIGER

@<TRIPOS>ATOM
      1 N         141.2547  138.9020  157.9683 N.ar    1  UNL1       -0.2956
      2 C         139.7683  138.7007  157.9812 C.ar    1  UNL1        0.1981
      3 N         139.4431  137.5869  157.0306 N.ar    1  UNL1       -0.2138
      4 C         140.7285  137.0998  156.4302 C.ar    1  UNL1        0.0999
      5 C         141.0241  136.0212  155.4306 C.ar    1  UNL1        0.0207
      6 C         142.4392  135.7553  155.0105 C.ar    1  UNL1        0.0016
      7 C         143.5589  136.5681  155.5901 C.ar    1  UNL1        0.0016
      8 C         143.2633  137.6467  156.5896 C.ar    1  UNL1        0.0188
      9 C         141.8481  137.9126  157.0097 C.ar    1  UNL1        0.0801
     10 N         138.7806  139.4770  158.8009 N.pl3   1  UNL1       -0.3058
     11 H         138.1679  140.1111  158.3629 H       1  UNL1        0.1495
     12 C         138.7263  139.2871  160.2878 C.3     1  UNL1        0.0745
     13 C         139.2751  138.0347  160.9046 C.3     1  UNL1        0.0369
     14 C         139.2208  137.8449  162.3915 C.3     1  UNL1        0.0738
     15 N         138.6178  138.9074  163.2617 N.3     1  UNL1       -0.2723
     16 C         138.0690  140.1598  162.6450 C.3     1  UNL1        0.0738
     17 C         138.1232  140.3497  161.1580 C.3     1  UNL1        0.0369
     18 C         138.5635  138.7176  164.7487 C.3     1  UNL1        0.0768
     19 C         138.3644  139.9006  165.6491 C.3     1  UNL1        0.0437
     20 C         139.5217  140.4552  166.4256 C.ar    1  UNL1       -0.0207
     21 C         139.6722  140.1301  167.8823 C.ar    1  UNL1       -0.0035
     22 C         140.8295  140.6847  168.6588 C.ar    1  UNL1        0.0100
     23 C         141.8363  141.5644  167.9788 C.ar    1  UNL1        0.0684
     24 C         141.6859  141.8894  166.5222 C.ar    1  UNL1        0.0100
     25 C         140.5286  141.3348  165.7456 C.ar    1  UNL1       -0.0035
     26 C         142.9936  142.1189  168.7554 C.1     1  UNL1        0.1004
     27 N         144.1510  142.6736  169.5320 N.1     1  UNL1       -0.1908
     28 C         142.0143  139.9148  158.7727 C.3     1  UNL1        0.1354
     29 C         142.9418  139.1130  163.1024 C.ar    1  UNL1        0.1057
     30 C         142.2519  140.3847  162.7063 C.ar    1  UNL1        0.0181
     31 C         141.9427  140.6519  161.2630 C.ar    1  UNL1       -0.0011
     32 C         142.3235  139.6475  160.2159 C.ar    1  UNL1        0.0005
     33 C         143.0134  138.3759  160.6121 C.ar    1  UNL1       -0.0011
     34 C         143.3226  138.1087  162.0554 C.ar    1  UNL1        0.0181
     35 C         143.5601  138.5785  165.9890 C.3     1  UNL1        0.1816
     36 S         143.2510  138.8458  164.5457 S.O2    1  UNL1        0.0104
     37 O         144.5625  139.5582  164.3967 O.2     1  UNL1       -0.1686
     38 O         141.9394  138.1332  164.6948 O.2     1  UNL1       -0.1686
@<TRIPOS>BOND
     1    35    36    1
     2    36    37    2
     3    36    38    2
     4    36    29    1
     5    29    30   ar
     6    30    31   ar
     7    31    32   ar
     8    32    28    1
     9    28     1    1
    10     1     2   ar
    11     2    10    1
    12    10    12    1
    13    12    13    1
    14    13    14    1
    15    14    15    1
    16    15    18    1
    17    18    19    1
    18    19    20    1
    19    20    21   ar
    20    21    22   ar
    21    22    23   ar
    22    23    26    1
    23    26    27    3
    24    23    24   ar
    25    24    25   ar
    26    15    16    1
    27    16    17    1
    28     2     3   ar
    29     3     4   ar
    30     4     5   ar
    31     5     6   ar
    32     6     7   ar
    33     7     8   ar
    34     8     9   ar
    35    32    33   ar
    36    33    34   ar
    37    34    29   ar
    38     9     1   ar
    39    17    12    1
    40     9     4   ar
    41    25    20   ar
    42    10    11    1
@<TRIPOS>MOLECULE
*****
 38 42 0 0 0
SMALL
GASTEIGER

@<TRIPOS>ATOM
      1 N         141.2747  139.5316  166.5187 N.ar    1  UNL1       -0.2956
      2 C         142.7210  139.1654  166.6743 C.ar    1  UNL1        0.1981
      3 N         143.0572  139.2156  168.1353 N.ar    1  UNL1       -0.2138
      4 C         141.8187  139.6127  168.8826 C.ar    1  UNL1        0.0999
      5 C         141.5518  139.8217  170.3438 C.ar    1  UNL1        0.0207
      6 C         140.1832  140.2261  170.8058 C.ar    1  UNL1        0.0016
      7 C         139.0816  140.4214  169.8066 C.ar    1  UNL1        0.0016
      8 C         139.3485  140.2124  168.3455 C.ar    1  UNL1        0.0188
      9 C         140.7171  139.8081  167.8835 C.ar    1  UNL1        0.0801
     10 N         143.6653  138.8113  165.5639 N.pl3   1  UNL1       -0.3058
     11 H         144.0968  137.9266  165.5481 H       1  UNL1        0.1495
     12 C         143.9520  139.8051  164.4777 C.3     1  UNL1        0.0745
     13 C         144.1440  139.3379  163.0652 C.3     1  UNL1        0.0369
     14 C         144.4308  140.3317  161.9789 C.3     1  UNL1        0.0738
     15 N         144.5255  141.7928  162.3050 N.3     1  UNL1       -0.2723
     16 C         144.3335  142.2600  163.7174 C.3     1  UNL1        0.0738
     17 C         144.0467  141.2662  164.8037 C.3     1  UNL1        0.0369
     18 C         144.8123  142.7867  161.2186 C.3     1  UNL1        0.0768
     19 C         144.4918  142.4517  159.7921 C.3     1  UNL1        0.0437
     20 C         143.0685  142.4692  159.3192 C.ar    1  UNL1       -0.0207
     21 C         142.3986  141.1912  158.9090 C.ar    1  UNL1       -0.0035
     22 C         140.9753  141.2087  158.4361 C.ar    1  UNL1        0.0100
     23 C         140.2217  142.5042  158.3733 C.ar    1  UNL1        0.0684
     24 C         140.8915  143.7821  158.7833 C.ar    1  UNL1        0.0100
     25 C         142.3149  143.7647  159.2563 C.ar    1  UNL1       -0.0035
     26 C         138.7983  142.5217  157.9003 C.1     1  UNL1        0.1004
     27 N         137.3749  142.5392  157.4273 N.1     1  UNL1       -0.1908
     28 C         140.5188  139.6080  165.2254 C.3     1  UNL1        0.1354
     29 C         140.1260  143.5427  163.0774 C.ar    1  UNL1        0.1057
     30 C         140.6670  142.3446  162.3549 C.ar    1  UNL1        0.0181
     31 C         140.7979  141.0330  163.0710 C.ar    1  UNL1       -0.0011
     32 C         140.3878  140.9195  164.5094 C.ar    1  UNL1        0.0005
     33 C         139.8469  142.1176  165.2318 C.ar    1  UNL1       -0.0011
     34 C         139.7159  143.4292  164.5158 C.ar    1  UNL1        0.0181
     35 C         139.8641  146.1658  161.6454 C.3     1  UNL1        0.1816
     36 S         139.9951  144.8542  162.3614 S.O2    1  UNL1        0.0104
     37 O         141.2197  145.3602  163.0644 O.2     1  UNL1       -0.1686
     38 O         138.7704  144.3482  161.6583 O.2     1  UNL1       -0.1686
@<TRIPOS>BOND
     1    35    36    1
     2    36    37    2
     3    36    38    2
     4    36    29    1
     5    29    30   ar
     6    30    31   ar
     7    31    32   ar
     8    32    28    1
     9    28     1    1
    10     1     2   ar
    11     2    10    1
    12    10    12    1
    13    12    13    1
    14    13    14    1
    15    14    15    1
    16    15    18    1
    17    18    19    1
    18    19    20    1
    19    20    21   ar
    20    21    22   ar
    21    22    23   ar
    22    23    26    1
    23    26    27    3
    24    23    24   ar
    25    24    25   ar
    26    15    16    1
    27    16    17    1
    28     2     3   ar
    29     3     4   ar
    30     4     5   ar
    31     5     6   ar
    32     6     7   ar
    33     7     8   ar
    34     8     9   ar
    35    32    33   ar
    36    33    34   ar
    37    34    29   ar
    38     9     1   ar
    39    17    12    1
    40     9     4   ar
    41    25    20   ar
    42    10    11    1
@<TRIPOS>MOLECULE
*****
 38 42 0 0 0
SMALL
GASTEIGER

@<TRIPOS>ATOM
      1 N         140.5425  140.4405  167.3015 N.ar    1  UNL1       -0.2956
      2 C         139.3062  139.7479  167.7933 C.ar    1  UNL1        0.1981
      3 N         139.2025  139.9793  169.2717 N.ar    1  UNL1       -0.2138
      4 C         140.3746  140.8148  169.6936 C.ar    1  UNL1        0.0999
      5 C         140.7948  141.3529  171.0292 C.ar    1  UNL1        0.0207
      6 C         142.0432  142.1760  171.1471 C.ar    1  UNL1        0.0016
      7 C         142.8714  142.4610  169.9294 C.ar    1  UNL1        0.0016
      8 C         142.4512  141.9230  168.5938 C.ar    1  UNL1        0.0188
      9 C         141.2028  141.0999  168.4759 C.ar    1  UNL1        0.0801
     10 N         138.3428  138.9620  166.9541 N.pl3   1  UNL1       -0.3058
     11 H         137.5626  138.5317  167.3729 H       1  UNL1        0.1495
     12 C         138.5681  138.8318  165.4769 C.3     1  UNL1        0.0745
     13 C         137.9472  139.8190  164.5336 C.3     1  UNL1        0.0369
     14 C         138.1725  139.6888  163.0564 C.3     1  UNL1        0.0738
     15 N         139.0187  138.5713  162.5224 N.3     1  UNL1       -0.2723
     16 C         139.6396  137.5840  163.4657 C.3     1  UNL1        0.0738
     17 C         139.4143  137.7143  164.9430 C.3     1  UNL1        0.0369
     18 C         139.2440  138.4410  161.0451 C.3     1  UNL1        0.0768
     19 C         138.6239  139.4288  160.1019 C.3     1  UNL1        0.0437
     20 C         139.3513  140.6942  159.7563 C.ar    1  UNL1       -0.0207
     21 C         138.5972  141.9861  159.6437 C.ar    1  UNL1       -0.0035
     22 C         139.3247  143.2515  159.2980 C.ar    1  UNL1        0.0100
     23 C         140.8062  143.2252  159.0650 C.ar    1  UNL1        0.0684
     24 C         141.5603  141.9334  159.1776 C.ar    1  UNL1        0.0100
     25 C         140.8329  140.6679  159.5233 C.ar    1  UNL1       -0.0035
     26 C         141.5337  144.4906  158.7194 C.1     1  UNL1        0.1004
     27 N         142.2612  145.7561  158.3738 N.1     1  UNL1       -0.1908
     28 C         141.0325  140.4687  165.8840 C.3     1  UNL1        0.1354
     29 C         140.1621  144.0287  163.2727 C.ar    1  UNL1        0.1057
     30 C         140.8904  142.8449  162.7086 C.ar    1  UNL1        0.0181
     31 C         141.1805  141.6583  163.5790 C.ar    1  UNL1       -0.0011
     32 C         140.7424  141.6553  165.0137 C.ar    1  UNL1        0.0005
     33 C         140.0141  142.8391  165.5777 C.ar    1  UNL1       -0.0011
     34 C         139.7239  144.0258  164.7073 C.ar    1  UNL1        0.0181
     35 C         139.5818  146.4019  161.5318 C.3     1  UNL1        0.1816
     36 S         139.8720  145.2153  162.4022 S.O2    1  UNL1        0.0104
     37 O         138.4052  144.9095  162.4743 O.2     1  UNL1       -0.1686
     38 O         141.3387  145.5211  162.3302 O.2     1  UNL1       -0.1686
@<TRIPOS>BOND
     1    35    36    1
     2    36    37    2
     3    36    38    2
     4    36    29    1
     5    29    30   ar
     6    30    31   ar
     7    31    32   ar
     8    32    28    1
     9    28     1    1
    10     1     2   ar
    11     2    10    1
    12    10    12    1
    13    12    13    1
    14    13    14    1
    15    14    15    1
    16    15    18    1
    17    18    19    1
    18    19    20    1
    19    20    21   ar
    20    21    22   ar
    21    22    23   ar
    22    23    26    1
    23    26    27    3
    24    23    24   ar
    25    24    25   ar
    26    15    16    1
    27    16    17    1
    28     2     3   ar
    29     3     4   ar
    30     4     5   ar
    31     5     6   ar
    32     6     7   ar
    33     7     8   ar
    34     8     9   ar
    35    32    33   ar
    36    33    34   ar
    37    34    29   ar
    38     9     1   ar
    39    17    12    1
    40     9     4   ar
    41    25    20   ar
    42    10    11    1
@<TRIPOS>MOLECULE
*****
 38 42 0 0 0
SMALL
GASTEIGER

@<TRIPOS>ATOM
      1 N         141.5478  139.2240  158.0121 N.ar    1  UNL1       -0.2956
      2 C         143.0331  139.0167  158.0421 C.ar    1  UNL1        0.1981
      3 N         143.3672  137.9176  157.0775 N.ar    1  UNL1       -0.2138
      4 C         142.0884  137.4457  156.4514 C.ar    1  UNL1        0.0999
      5 C         141.8026  136.3850  155.4300 C.ar    1  UNL1        0.0207
      6 C         140.3923  136.1319  154.9862 C.ar    1  UNL1        0.0016
      7 C         139.2679  136.9393  155.5638 C.ar    1  UNL1        0.0016
      8 C         139.5537  137.9999  156.5852 C.ar    1  UNL1        0.0188
      9 C         140.9639  138.2531  157.0290 C.ar    1  UNL1        0.0801
     10 N         144.0124  139.7752  158.8880 N.pl3   1  UNL1       -0.3058
     11 H         144.7084  140.3256  158.4616 H       1  UNL1        0.1495
     12 C         143.9311  139.6952  160.3837 C.3     1  UNL1        0.0745
     13 C         144.1804  140.9188  161.2149 C.3     1  UNL1        0.0369
     14 C         144.0991  140.8388  162.7105 C.3     1  UNL1        0.0738
     15 N         143.7686  139.5352  163.3750 N.3     1  UNL1       -0.2723
     16 C         143.5193  138.3117  162.5439 C.3     1  UNL1        0.0738
     17 C         143.6006  138.3917  161.0482 C.3     1  UNL1        0.0369
     18 C         143.6873  139.4553  164.8707 C.3     1  UNL1        0.0768
     19 C         142.3526  139.3317  165.5438 C.3     1  UNL1        0.0437
     20 C         141.8969  140.3887  166.5055 C.ar    1  UNL1       -0.0207
     21 C         142.4105  140.3922  167.9148 C.ar    1  UNL1       -0.0035
     22 C         141.9548  141.4493  168.8766 C.ar    1  UNL1        0.0100
     23 C         140.9855  142.5029  168.4290 C.ar    1  UNL1        0.0684
     24 C         140.4718  142.4994  167.0197 C.ar    1  UNL1        0.0100
     25 C         140.9275  141.4423  166.0579 C.ar    1  UNL1       -0.0035
     26 C         140.5298  143.5599  169.3907 C.1     1  UNL1        0.1004
     27 N         140.0740  144.6170  170.3524 N.1     1  UNL1       -0.1908
     28 C         140.7810  140.2264  158.8228 C.3     1  UNL1        0.1354
     29 C         139.3464  139.1567  162.9517 C.ar    1  UNL1        0.1057
     30 C         139.7949  140.5566  162.6528 C.ar    1  UNL1        0.0181
     31 C         140.2731  140.9131  161.2765 C.ar    1  UNL1       -0.0011
     32 C         140.3028  139.8698  160.1991 C.ar    1  UNL1        0.0005
     33 C         139.8543  138.4700  160.4981 C.ar    1  UNL1       -0.0011
     34 C         139.3761  138.1135  161.8744 C.ar    1  UNL1        0.0181
     35 C         138.3901  138.4437  165.7043 C.3     1  UNL1        0.1816
     36 S         138.8682  138.8002  164.3280 S.O2    1  UNL1        0.0104
     37 O         138.1234  140.0998  164.4059 O.2     1  UNL1       -0.1686
     38 O         139.6131  137.5005  164.2502 O.2     1  UNL1       -0.1686
@<TRIPOS>BOND
     1    35    36    1
     2    36    37    2
     3    36    38    2
     4    36    29    1
     5    29    30   ar
     6    30    31   ar
     7    31    32   ar
     8    32    28    1
     9    28     1    1
    10     1     2   ar
    11     2    10    1
    12    10    12    1
    13    12    13    1
    14    13    14    1
    15    14    15    1
    16    15    18    1
    17    18    19    1
    18    19    20    1
    19    20    21   ar
    20    21    22   ar
    21    22    23   ar
    22    23    26    1
    23    26    27    3
    24    23    24   ar
    25    24    25   ar
    26    15    16    1
    27    16    17    1
    28     2     3   ar
    29     3     4   ar
    30     4     5   ar
    31     5     6   ar
    32     6     7   ar
    33     7     8   ar
    34     8     9   ar
    35    32    33   ar
    36    33    34   ar
    37    34    29   ar
    38     9     1   ar
    39    17    12    1
    40     9     4   ar
    41    25    20   ar
    42    10    11    1
@<TRIPOS>MOLECULE
*****
 38 42 0 0 0
SMALL
GASTEIGER

@<TRIPOS>ATOM
      1 N         141.2082  139.9625  167.6099 N.ar    1  UNL1       -0.2956
      2 C         139.7522  139.9105  167.9665 C.ar    1  UNL1        0.1981
      3 N         139.5110  140.8926  169.0743 N.ar    1  UNL1       -0.2138
      4 C         140.8180  141.5516  169.4023 C.ar    1  UNL1        0.0999
      5 C         141.1884  142.6009  170.4082 C.ar    1  UNL1        0.0207
      6 C         142.6078  143.0753  170.5089 C.ar    1  UNL1        0.0016
      7 C         143.6568  142.5004  169.6039 C.ar    1  UNL1        0.0016
      8 C         143.2863  141.4511  168.5980 C.ar    1  UNL1        0.0188
      9 C         141.8669  140.9768  168.4972 C.ar    1  UNL1        0.0801
     10 N         138.7188  139.0308  167.3276 N.pl3   1  UNL1       -0.3058
     11 H         138.1199  138.4872  167.8889 H       1  UNL1        0.1495
     12 C         138.5978  138.9793  165.8334 C.3     1  UNL1        0.0745
     13 C         138.1031  140.1779  165.0792 C.3     1  UNL1        0.0369
     14 C         137.9822  140.1264  163.5850 C.3     1  UNL1        0.0738
     15 N         138.3559  138.8763  162.8449 N.3     1  UNL1       -0.2723
     16 C         138.8506  137.6778  163.5990 C.3     1  UNL1        0.0738
     17 C         138.9716  137.7293  165.0933 C.3     1  UNL1        0.0369
     18 C         138.2349  138.8249  161.3506 C.3     1  UNL1        0.0768
     19 C         139.1461  139.6545  160.4954 C.3     1  UNL1        0.0437
     20 C         140.1220  138.9870  159.5724 C.ar    1  UNL1       -0.0207
     21 C         139.6876  138.5634  158.2005 C.ar    1  UNL1       -0.0035
     22 C         140.6635  137.8959  157.2774 C.ar    1  UNL1        0.0100
     23 C         142.0738  137.6520  157.7262 C.ar    1  UNL1        0.0684
     24 C         142.5083  138.0755  159.0980 C.ar    1  UNL1        0.0100
     25 C         141.5324  138.7430  160.0211 C.ar    1  UNL1       -0.0035
     26 C         143.0497  136.9845  156.8031 C.1     1  UNL1        0.1004
     27 N         144.0257  136.3170  155.8800 N.1     1  UNL1       -0.1908
     28 C         141.8866  139.1439  166.5517 C.3     1  UNL1        0.1354
     29 C         143.6608  141.1591  162.9405 C.ar    1  UNL1        0.1057
     30 C         142.1714  141.0522  163.0836 C.ar    1  UNL1        0.0181
     31 C         141.5801  140.3805  164.2874 C.ar    1  UNL1       -0.0011
     32 C         142.4780  139.8156  165.3480 C.ar    1  UNL1        0.0005
     33 C         143.9673  139.9226  165.2047 C.ar    1  UNL1       -0.0011
     34 C         144.5586  140.5943  164.0010 C.ar    1  UNL1        0.0181
     35 C         144.8435  142.5026  160.5330 C.3     1  UNL1        0.1816
     36 S         144.2522  141.8309  161.7367 S.O2    1  UNL1        0.0104
     37 O         145.6148  141.7443  162.3578 O.2     1  UNL1       -0.1686
     38 O         142.8895  141.9175  161.1155 O.2     1  UNL1       -0.1686
@<TRIPOS>BOND
     1    35    36    1
     2    36    37    2
     3    36    38    2
     4    36    29    1
     5    29    30   ar
     6    30    31   ar
     7    31    32   ar
     8    32    28    1
     9    28     1    1
    10     1     2   ar
    11     2    10    1
    12    10    12    1
    13    12    13    1
    14    13    14    1
    15    14    15    1
    16    15    18    1
    17    18    19    1
    18    19    20    1
    19    20    21   ar
    20    21    22   ar
    21    22    23   ar
    22    23    26    1
    23    26    27    3
    24    23    24   ar
    25    24    25   ar
    26    15    16    1
    27    16    17    1
    28     2     3   ar
    29     3     4   ar
    30     4     5   ar
    31     5     6   ar
    32     6     7   ar
    33     7     8   ar
    34     8     9   ar
    35    32    33   ar
    36    33    34   ar
    37    34    29   ar
    38     9     1   ar
    39    17    12    1
    40     9     4   ar
    41    25    20   ar
    42    10    11    1
@<TRIPOS>MOLECULE
*****
 38 42 0 0 0
SMALL
GASTEIGER

@<TRIPOS>ATOM
      1 N         140.5850  141.2860  159.0382 N.ar    1  UNL1       -0.2956
      2 C         139.1001  141.3309  159.2461 C.ar    1  UNL1        0.1981
      3 N         138.6226  142.7056  158.8827 N.ar    1  UNL1       -0.2138
      4 C         139.8123  143.5104  158.4503 C.ar    1  UNL1        0.0999
      5 C         139.9479  144.9287  157.9814 C.ar    1  UNL1        0.0207
      6 C         141.2964  145.4697  157.6087 C.ar    1  UNL1        0.0016
      7 C         142.5092  144.5923  157.7047 C.ar    1  UNL1        0.0016
      8 C         142.3736  143.1740  158.1736 C.ar    1  UNL1        0.0188
      9 C         141.0251  142.6330  158.5464 C.ar    1  UNL1        0.0801
     10 N         138.2433  140.1997  159.7320 N.pl3   1  UNL1       -0.3058
     11 H         137.6294  139.7451  159.1109 H       1  UNL1        0.1495
     12 C         138.3217  139.7610  161.1643 C.3     1  UNL1        0.0745
     13 C         137.9825  140.7239  162.2633 C.3     1  UNL1        0.0369
     14 C         138.0610  140.2853  163.6955 C.3     1  UNL1        0.0738
     15 N         138.4785  138.8837  164.0288 N.3     1  UNL1       -0.2723
     16 C         138.8177  137.9207  162.9299 C.3     1  UNL1        0.0738
     17 C         138.7393  138.3594  161.4976 C.3     1  UNL1        0.0369
     18 C         138.5570  138.4450  165.4612 C.3     1  UNL1        0.0768
     19 C         138.3588  139.4431  166.5632 C.3     1  UNL1        0.0437
     20 C         139.5452  140.1115  167.1920 C.ar    1  UNL1       -0.0207
     21 C         140.4679  140.9457  166.3536 C.ar    1  UNL1       -0.0035
     22 C         141.6544  141.6141  166.9825 C.ar    1  UNL1        0.0100
     23 C         141.9183  141.4482  168.4497 C.ar    1  UNL1        0.0684
     24 C         140.9957  140.6140  169.2881 C.ar    1  UNL1        0.0100
     25 C         139.8092  139.9456  168.6593 C.ar    1  UNL1       -0.0035
     26 C         143.1048  142.1166  169.0786 C.1     1  UNL1        0.1004
     27 N         144.2914  142.7849  169.7074 N.1     1  UNL1       -0.1908
     28 C         141.4737  140.1020  159.2797 C.3     1  UNL1        0.1354
     29 C         142.7427  139.0584  163.4691 C.ar    1  UNL1        0.1057
     30 C         142.1760  140.4155  163.1731 C.ar    1  UNL1        0.0181
     31 C         141.7530  140.7633  161.7767 C.ar    1  UNL1       -0.0011
     32 C         141.8967  139.7542  160.6761 C.ar    1  UNL1        0.0005
     33 C         142.4633  138.3972  160.9721 C.ar    1  UNL1       -0.0011
     34 C         142.8863  138.0494  162.3686 C.ar    1  UNL1        0.0181
     35 C         143.5886  138.3628  166.2620 C.3     1  UNL1        0.1816
     36 S         143.1656  138.7106  164.8655 S.O2    1  UNL1        0.0104
     37 O         141.9085  137.9130  165.0476 O.2     1  UNL1       -0.1686
     38 O         144.4229  139.5083  164.6835 O.2     1  UNL1       -0.1686
@<TRIPOS>BOND
     1    35    36    1
     2    36    37    2
     3    36    38    2
     4    36    29    1
     5    29    30   ar
     6    30    31   ar
     7    31    32   ar
     8    32    28    1
     9    28     1    1
    10     1     2   ar
    11     2    10    1
    12    10    12    1
    13    12    13    1
    14    13    14    1
    15    14    15    1
    16    15    18    1
    17    18    19    1
    18    19    20    1
    19    20    21   ar
    20    21    22   ar
    21    22    23   ar
    22    23    26    1
    23    26    27    3
    24    23    24   ar
    25    24    25   ar
    26    15    16    1
    27    16    17    1
    28     2     3   ar
    29     3     4   ar
    30     4     5   ar
    31     5     6   ar
    32     6     7   ar
    33     7     8   ar
    34     8     9   ar
    35    32    33   ar
    36    33    34   ar
    37    34    29   ar
    38     9     1   ar
    39    17    12    1
    40     9     4   ar
    41    25    20   ar
    42    10    11    1
@<TRIPOS>MOLECULE
*****
 38 42 0 0 0
SMALL
GASTEIGER

@<TRIPOS>ATOM
      1 N         143.3504  141.3916  166.7680 N.ar    1  UNL1       -0.2956
      2 C         143.2248  140.0275  166.1568 C.ar    1  UNL1        0.1981
      3 N         142.5757  139.1260  167.1647 N.ar    1  UNL1       -0.2138
      4 C         142.3001  139.9328  168.3989 C.ar    1  UNL1        0.0999
      5 C         141.6751  139.5734  169.7142 C.ar    1  UNL1        0.0207
      6 C         141.5289  140.6142  170.7843 C.ar    1  UNL1        0.0016
      7 C         142.0076  142.0145  170.5391 C.ar    1  UNL1        0.0016
      8 C         142.6326  142.3739  169.2238 C.ar    1  UNL1        0.0188
      9 C         142.7789  141.3331  168.1537 C.ar    1  UNL1        0.0801
     10 N         143.6701  139.6341  164.7795 N.pl3   1  UNL1       -0.3058
     11 H         144.6282  139.5143  164.5874 H       1  UNL1        0.1495
     12 C         142.6556  139.4232  163.6949 C.3     1  UNL1        0.0745
     13 C         141.6824  138.2857  163.7891 C.3     1  UNL1        0.0369
     14 C         140.6679  138.0748  162.7045 C.3     1  UNL1        0.0738
     15 N         140.6267  139.0015  161.5257 N.3     1  UNL1       -0.2723
     16 C         141.5999  140.1390  161.4315 C.3     1  UNL1        0.0738
     17 C         142.6144  140.3499  162.5161 C.3     1  UNL1        0.0369
     18 C         139.6121  138.7906  160.4411 C.3     1  UNL1        0.0768
     19 C         138.3476  139.5972  160.4298 C.3     1  UNL1        0.0437
     20 C         138.1379  140.6772  161.4494 C.ar    1  UNL1       -0.0207
     21 C         137.7846  140.3168  162.8619 C.ar    1  UNL1       -0.0035
     22 C         137.5748  141.3968  163.8815 C.ar    1  UNL1        0.0100
     23 C         137.7184  142.8373  163.4886 C.ar    1  UNL1        0.0684
     24 C         138.0716  143.1978  162.0761 C.ar    1  UNL1        0.0100
     25 C         138.2814  142.1177  161.0564 C.ar    1  UNL1       -0.0035
     26 C         137.5086  143.9173  164.5081 C.1     1  UNL1        0.1004
     27 N         137.2989  144.9974  165.5277 N.1     1  UNL1       -0.1908
     28 C         143.9433  142.6017  166.1093 C.3     1  UNL1        0.1354
     29 C         142.1094  144.2374  162.3395 C.ar    1  UNL1        0.1057
     30 C         143.5999  144.1173  162.4575 C.ar    1  UNL1        0.0181
     31 C         144.2112  143.5720  163.7141 C.ar    1  UNL1       -0.0011
     32 C         143.3320  143.1469  164.8527 C.ar    1  UNL1        0.0005
     33 C         141.8415  143.2671  164.7347 C.ar    1  UNL1       -0.0011
     34 C         141.2302  143.8123  163.4781 C.ar    1  UNL1        0.0181
     35 C         140.8868  145.3279  159.8263 C.3     1  UNL1        0.1816
     36 S         141.4981  144.7827  161.0829 S.O2    1  UNL1        0.0104
     37 O         140.5057  145.5548  161.9007 O.2     1  UNL1       -0.1686
     38 O         142.4905  144.0104  160.2650 O.2     1  UNL1       -0.1686
@<TRIPOS>BOND
     1    35    36    1
     2    36    37    2
     3    36    38    2
     4    36    29    1
     5    29    30   ar
     6    30    31   ar
     7    31    32   ar
     8    32    28    1
     9    28     1    1
    10     1     2   ar
    11     2    10    1
    12    10    12    1
    13    12    13    1
    14    13    14    1
    15    14    15    1
    16    15    18    1
    17    18    19    1
    18    19    20    1
    19    20    21   ar
    20    21    22   ar
    21    22    23   ar
    22    23    26    1
    23    26    27    3
    24    23    24   ar
    25    24    25   ar
    26    15    16    1
    27    16    17    1
    28     2     3   ar
    29     3     4   ar
    30     4     5   ar
    31     5     6   ar
    32     6     7   ar
    33     7     8   ar
    34     8     9   ar
    35    32    33   ar
    36    33    34   ar
    37    34    29   ar
    38     9     1   ar
    39    17    12    1
    40     9     4   ar
    41    25    20   ar
    42    10    11    1
@<TRIPOS>MOLECULE
*****
 38 42 0 0 0
SMALL
GASTEIGER

@<TRIPOS>ATOM
      1 N         140.7044  140.3000  166.7221 N.ar    1  UNL1       -0.2956
      2 C         139.5463  139.3498  166.8000 C.ar    1  UNL1        0.1981
      3 N         138.8619  139.5605  168.1180 N.ar    1  UNL1       -0.2138
      4 C         139.5969  140.6408  168.8547 C.ar    1  UNL1        0.0999
      5 C         139.3764  141.2674  170.1995 C.ar    1  UNL1        0.0207
      6 C         140.2947  142.3511  170.6817 C.ar    1  UNL1        0.0016
      7 C         141.4335  142.8081  169.8189 C.ar    1  UNL1        0.0016
      8 C         141.6540  142.1815  168.4741 C.ar    1  UNL1        0.0188
      9 C         140.7357  141.0978  167.9919 C.ar    1  UNL1        0.0801
     10 N         139.1435  138.3624  165.7452 N.pl3   1  UNL1       -0.3058
     11 H         139.1139  137.4012  165.9563 H       1  UNL1        0.1495
     12 C         138.7857  138.8394  164.3689 C.3     1  UNL1        0.0745
     13 C         139.0992  137.9874  163.1747 C.3     1  UNL1        0.0369
     14 C         138.7414  138.4644  161.7983 C.3     1  UNL1        0.0738
     15 N         138.0701  139.7933  161.6160 N.3     1  UNL1       -0.2723
     16 C         137.7565  140.6453  162.8101 C.3     1  UNL1        0.0738
     17 C         138.1143  140.1683  164.1866 C.3     1  UNL1        0.0369
     18 C         137.7122  140.2703  160.2396 C.3     1  UNL1        0.0768
     19 C         138.5390  139.8487  159.0612 C.3     1  UNL1        0.0437
     20 C         139.9219  140.4005  158.8794 C.ar    1  UNL1       -0.0207
     21 C         141.1163  139.5528  159.2033 C.ar    1  UNL1       -0.0035
     22 C         142.4992  140.1047  159.0215 C.ar    1  UNL1        0.0100
     23 C         142.6877  141.5042  158.5157 C.ar    1  UNL1        0.0684
     24 C         141.4933  142.3519  158.1918 C.ar    1  UNL1        0.0100
     25 C         140.1104  141.8000  158.3736 C.ar    1  UNL1       -0.0035
     26 C         144.0705  142.0561  158.3339 C.1     1  UNL1        0.1004
     27 N         145.4535  142.6080  158.1520 N.1     1  UNL1       -0.1908
     28 C         141.6630  140.4295  165.5757 C.3     1  UNL1        0.1354
     29 C         140.9020  143.4605  162.3378 C.ar    1  UNL1        0.1057
     30 C         140.7476  143.8476  163.7788 C.ar    1  UNL1        0.0181
     31 C         141.0013  142.8372  164.8580 C.ar    1  UNL1       -0.0011
     32 C         141.4093  141.4398  164.4964 C.ar    1  UNL1        0.0005
     33 C         141.5637  141.0527  163.0554 C.ar    1  UNL1       -0.0011
     34 C         141.3100  142.0631  161.9762 C.ar    1  UNL1        0.0181
     35 C         140.3946  145.4812  160.1793 C.3     1  UNL1        0.1816
     36 S         140.6483  144.4708  161.2585 S.O2    1  UNL1        0.0104
     37 O         139.1889  144.4748  161.6053 O.2     1  UNL1       -0.1686
     38 O         142.1077  144.4669  160.9117 O.2     1  UNL1       -0.1686
@<TRIPOS>BOND
     1    35    36    1
     2    36    37    2
     3    36    38    2
     4    36    29    1
     5    29    30   ar
     6    30    31   ar
     7    31    32   ar
     8    32    28    1
     9    28     1    1
    10     1     2   ar
    11     2    10    1
    12    10    12    1
    13    12    13    1
    14    13    14    1
    15    14    15    1
    16    15    18    1
    17    18    19    1
    18    19    20    1
    19    20    21   ar
    20    21    22   ar
    21    22    23   ar
    22    23    26    1
    23    26    27    3
    24    23    24   ar
    25    24    25   ar
    26    15    16    1
    27    16    17    1
    28     2     3   ar
    29     3     4   ar
    30     4     5   ar
    31     5     6   ar
    32     6     7   ar
    33     7     8   ar
    34     8     9   ar
    35    32    33   ar
    36    33    34   ar
    37    34    29   ar
    38     9     1   ar
    39    17    12    1
    40     9     4   ar
    41    25    20   ar
    42    10    11    1
