@<TRIPOS>MOLECULE
*****
 28 31 0 0 0
SMALL
GASTEIGER

@<TRIPOS>ATOM
      1 C         141.0633  137.2392  163.9382 C.3     1  UNL1        0.0721
      2 O         144.7816  138.4663  160.7515 O.3     1  UNL1       -0.3785
      3 C         143.2866  138.3705  160.8282 C.3     1  UNL1        0.1498
      4 C         142.7306  137.9103  162.1431 C.3     1  UNL1        0.0368
      5 C         141.2959  137.7135  162.5343 C.3     1  UNL1        0.0191
      6 C         140.0630  137.9283  161.7073 C.3     1  UNL1        0.0062
      7 C         139.9604  138.3930  160.2848 C.3     1  UNL1        0.0277
      8 C         141.0652  138.7576  159.3379 C.ar    1  UNL1       -0.0063
      9 C         140.5264  139.1734  158.0012 C.ar    1  UNL1       -0.0014
     10 C         141.4680  139.5791  156.9063 C.ar    1  UNL1        0.0203
     11 C         142.9483  139.5691  157.1482 C.ar    1  UNL1        0.0985
     12 N         143.4871  139.1533  158.4849 N.ar    1  UNL1       -0.2461
     13 C         142.5455  138.7476  159.5797 C.ar    1  UNL1        0.0817
     14 H         145.1665  138.2036  161.6023 H       1  UNL1        0.2108
     15 N         140.9767  138.2309  165.0602 N.3     1  UNL1       -0.2727
     16 C         142.2302  138.7670  165.6859 C.3     1  UNL1        0.0724
     17 C         142.1436  139.7586  166.8079 C.3     1  UNL1        0.0218
     18 C         140.8035  140.2143  167.3044 C.3     1  UNL1        0.0268
     19 C         139.5500  139.6783  166.6788 C.3     1  UNL1        0.0218
     20 C         139.6366  138.6865  165.5567 C.3     1  UNL1        0.0724
     21 C         140.7169  141.2060  168.4265 C.ar    1  UNL1       -0.0013
     22 C         140.9120  140.7542  169.8434 C.ar    1  UNL1        0.0545
     23 CL        141.1936  139.3107  170.1384 Cl      1  UNL1       -0.0825
     24 C         140.8254  141.7460  170.9654 C.ar    1  UNL1        0.0111
     25 C         140.5438  143.1895  170.6705 C.ar    1  UNL1        0.0017
     26 C         140.3487  143.6413  169.2535 C.ar    1  UNL1        0.0111
     27 C         140.4353  142.6495  168.1315 C.ar    1  UNL1        0.0545
     28 CL        140.2403  143.1013  166.7145 Cl      1  UNL1       -0.0825
@<TRIPOS>BOND
     1     3     2    1
     2     3     4    1
     3     4     5    1
     4     5     1    1
     5     1    15    1
     6    15    16    1
     7    16    17    1
     8    17    18    1
     9    18    21    1
    10    21    22   ar
    11    22    23    1
    12    22    24   ar
    13    24    25   ar
    14    25    26   ar
    15    26    27   ar
    16    27    28    1
    17    18    19    1
    18    19    20    1
    19     5     6    1
    20     6     7    1
    21     7     8    1
    22     8     9   ar
    23     9    10   ar
    24    10    11   ar
    25    11    12   ar
    26    12    13   ar
    27    13     3    1
    28    20    15    1
    29    13     8   ar
    30    27    21   ar
    31     2    14    1
@<TRIPOS>MOLECULE
*****
 28 31 0 0 0
SMALL
GASTEIGER

@<TRIPOS>ATOM
      1 C         140.9734  137.2744  163.8968 C.3     1  UNL1        0.0721
      2 O         144.8170  138.4143  160.8288 O.3     1  UNL1       -0.3785
      3 C         143.3183  138.3612  160.8612 C.3     1  UNL1        0.1498
      4 C         142.7110  137.9087  162.1560 C.3     1  UNL1        0.0368
      5 C         141.2605  137.7509  162.5038 C.3     1  UNL1        0.0191
      6 C         140.0590  138.0066  161.6429 C.3     1  UNL1        0.0062
      7 C         140.0114  138.4833  160.2215 C.3     1  UNL1        0.0277
      8 C         141.1535  138.8220  159.3098 C.ar    1  UNL1       -0.0063
      9 C         140.6662  139.2619  157.9611 C.ar    1  UNL1       -0.0014
     10 C         141.6507  139.6474  156.8971 C.ar    1  UNL1        0.0203
     11 C         143.1224  139.5931  157.1818 C.ar    1  UNL1        0.0985
     12 N         143.6097  139.1532  158.5305 N.ar    1  UNL1       -0.2461
     13 C         142.6252  138.7677  159.5945 C.ar    1  UNL1        0.0817
     14 H         145.1691  138.1351  161.6884 H       1  UNL1        0.2108
     15 N         140.9178  138.2567  165.0290 N.3     1  UNL1       -0.2727
     16 C         139.5924  138.7447  165.5342 C.3     1  UNL1        0.0724
     17 C         139.5368  139.7270  166.6664 C.3     1  UNL1        0.0218
     18 C         140.8067  140.2214  167.2935 C.3     1  UNL1        0.0268
     19 C         142.1320  139.7334  166.7884 C.3     1  UNL1        0.0218
     20 C         142.1876  138.7510  165.6561 C.3     1  UNL1        0.0724
     21 C         140.7510  141.2037  168.4257 C.ar    1  UNL1       -0.0013
     22 C         140.4489  142.6473  168.1521 C.ar    1  UNL1        0.0545
     23 CL        140.2023  143.1085  166.7462 Cl      1  UNL1       -0.0825
     24 C         140.3933  143.6295  169.2843 C.ar    1  UNL1        0.0111
     25 C         140.6399  143.1683  170.6902 C.ar    1  UNL1        0.0017
     26 C         140.9420  141.7248  170.9638 C.ar    1  UNL1        0.0111
     27 C         140.9976  140.7425  169.8316 C.ar    1  UNL1        0.0545
     28 CL        141.2998  139.2989  170.1052 Cl      1  UNL1       -0.0825
@<TRIPOS>BOND
     1     3     2    1
     2     3     4    1
     3     4     5    1
     4     5     1    1
     5     1    15    1
     6    15    16    1
     7    16    17    1
     8    17    18    1
     9    18    21    1
    10    21    22   ar
    11    22    23    1
    12    22    24   ar
    13    24    25   ar
    14    25    26   ar
    15    26    27   ar
    16    27    28    1
    17    18    19    1
    18    19    20    1
    19     5     6    1
    20     6     7    1
    21     7     8    1
    22     8     9   ar
    23     9    10   ar
    24    10    11   ar
    25    11    12   ar
    26    12    13   ar
    27    13     3    1
    28    20    15    1
    29    13     8   ar
    30    27    21   ar
    31     2    14    1
@<TRIPOS>MOLECULE
*****
 28 31 0 0 0
SMALL
GASTEIGER

@<TRIPOS>ATOM
      1 C         137.6738  142.7588  163.6736 C.3     1  UNL1        0.0721
      2 O         140.4377  146.5899  161.8932 O.3     1  UNL1       -0.3785
      3 C         139.8335  145.2838  161.4701 C.3     1  UNL1        0.1498
      4 C         139.0672  144.5478  162.5290 C.3     1  UNL1        0.0368
      5 C         138.3537  143.2326  162.4233 C.3     1  UNL1        0.0191
      6 C         138.2302  142.3286  161.2327 C.3     1  UNL1        0.0062
      7 C         138.7897  142.5165  159.8538 C.3     1  UNL1        0.0277
      8 C         139.6110  143.6548  159.3247 C.ar    1  UNL1       -0.0063
      9 C         139.9675  143.4494  157.8823 C.ar    1  UNL1       -0.0014
     10 C         140.7886  144.4755  157.1593 C.ar    1  UNL1        0.0203
     11 C         141.2532  145.7071  157.8786 C.ar    1  UNL1        0.0985
     12 N         140.8966  145.9125  159.3210 N.ar    1  UNL1       -0.2461
     13 C         140.0755  144.8864  160.0441 C.ar    1  UNL1        0.0817
     14 H         140.2268  146.7569  162.8252 H       1  UNL1        0.2108
     15 N         138.4746  142.1087  164.7626 N.3     1  UNL1       -0.2727
     16 C         138.3024  140.6464  165.0494 C.3     1  UNL1        0.0724
     17 C         139.1032  139.9963  166.1383 C.3     1  UNL1        0.0218
     18 C         140.0764  140.8083  166.9405 C.3     1  UNL1        0.0268
     19 C         140.2487  142.2705  166.6538 C.3     1  UNL1        0.0218
     20 C         139.4478  142.9207  165.5648 C.3     1  UNL1        0.0724
     21 C         140.8773  140.1581  168.0296 C.ar    1  UNL1       -0.0013
     22 C         140.3521  140.1338  169.4344 C.ar    1  UNL1        0.0545
     23 CL        139.0260  140.7598  169.7503 Cl      1  UNL1       -0.0825
     24 C         141.1530  139.4837  170.5233 C.ar    1  UNL1        0.0111
     25 C         142.4790  138.8577  170.2074 C.ar    1  UNL1        0.0017
     26 C         143.0042  138.8820  168.8026 C.ar    1  UNL1        0.0111
     27 C         142.2033  139.5322  167.7137 C.ar    1  UNL1        0.0545
     28 CL        142.7285  139.5564  166.3088 Cl      1  UNL1       -0.0825
@<TRIPOS>BOND
     1     3     2    1
     2     3     4    1
     3     4     5    1
     4     5     1    1
     5     1    15    1
     6    15    16    1
     7    16    17    1
     8    17    18    1
     9    18    21    1
    10    21    22   ar
    11    22    23    1
    12    22    24   ar
    13    24    25   ar
    14    25    26   ar
    15    26    27   ar
    16    27    28    1
    17    18    19    1
    18    19    20    1
    19     5     6    1
    20     6     7    1
    21     7     8    1
    22     8     9   ar
    23     9    10   ar
    24    10    11   ar
    25    11    12   ar
    26    12    13   ar
    27    13     3    1
    28    20    15    1
    29    13     8   ar
    30    27    21   ar
    31     2    14    1
@<TRIPOS>MOLECULE
*****
 28 31 0 0 0
SMALL
GASTEIGER

@<TRIPOS>ATOM
      1 C         137.6224  142.4422  163.4560 C.3     1  UNL1        0.0721
      2 O         140.4361  146.3171  161.8576 O.3     1  UNL1       -0.3785
      3 C         139.8175  145.0389  161.3742 C.3     1  UNL1        0.1498
      4 C         139.0399  144.2647  162.3969 C.3     1  UNL1        0.0368
      5 C         138.3111  142.9643  162.2300 C.3     1  UNL1        0.0191
      6 C         138.1800  142.1169  160.9992 C.3     1  UNL1        0.0062
      7 C         138.7453  142.3608  159.6314 C.3     1  UNL1        0.0277
      8 C         139.5813  143.5121  159.1564 C.ar    1  UNL1       -0.0063
      9 C         139.9392  143.3683  157.7069 C.ar    1  UNL1       -0.0014
     10 C         140.7742  144.4163  157.0330 C.ar    1  UNL1        0.0203
     11 C         141.2515  145.6082  157.8087 C.ar    1  UNL1        0.0985
     12 N         140.8936  145.7521  159.2582 N.ar    1  UNL1       -0.2461
     13 C         140.0585  144.7040  159.9321 C.ar    1  UNL1        0.0817
     14 H         140.2247  146.4440  162.7958 H       1  UNL1        0.2108
     15 N         138.4288  141.8605  164.5790 N.3     1  UNL1       -0.2727
     16 C         139.4130  142.7180  165.3181 C.3     1  UNL1        0.0724
     17 C         140.2195  142.1363  166.4411 C.3     1  UNL1        0.0218
     18 C         140.0419  140.6972  166.8250 C.3     1  UNL1        0.0268
     19 C         139.0578  139.8397  166.0859 C.3     1  UNL1        0.0218
     20 C         138.2512  140.4214  164.9629 C.3     1  UNL1        0.0724
     21 C         140.8485  140.1155  167.9481 C.ar    1  UNL1       -0.0013
     22 C         142.1825  139.4898  167.6677 C.ar    1  UNL1        0.0545
     23 CL        142.7101  139.4457  166.2642 Cl      1  UNL1       -0.0825
     24 C         142.9890  138.9082  168.7907 C.ar    1  UNL1        0.0111
     25 C         142.4614  138.9523  170.1942 C.ar    1  UNL1        0.0017
     26 C         141.1274  139.5780  170.4746 C.ar    1  UNL1        0.0111
     27 C         140.3209  140.1596  169.3516 C.ar    1  UNL1        0.0545
     28 CL        138.9867  140.7854  169.6320 Cl      1  UNL1       -0.0825
@<TRIPOS>BOND
     1     3     2    1
     2     3     4    1
     3     4     5    1
     4     5     1    1
     5     1    15    1
     6    15    16    1
     7    16    17    1
     8    17    18    1
     9    18    21    1
    10    21    22   ar
    11    22    23    1
    12    22    24   ar
    13    24    25   ar
    14    25    26   ar
    15    26    27   ar
    16    27    28    1
    17    18    19    1
    18    19    20    1
    19     5     6    1
    20     6     7    1
    21     7     8    1
    22     8     9   ar
    23     9    10   ar
    24    10    11   ar
    25    11    12   ar
    26    12    13   ar
    27    13     3    1
    28    20    15    1
    29    13     8   ar
    30    27    21   ar
    31     2    14    1
@<TRIPOS>MOLECULE
*****
 28 31 0 0 0
SMALL
GASTEIGER

@<TRIPOS>ATOM
      1 C         145.0870  140.6292  163.6282 C.3     1  UNL1        0.0721
      2 O         143.3817  136.9504  160.6209 O.3     1  UNL1       -0.3785
      3 C         143.6639  138.4237  160.6274 C.3     1  UNL1        0.1498
      4 C         144.1997  138.9779  161.9141 C.3     1  UNL1        0.0368
      5 C         144.5769  140.3933  162.2375 C.3     1  UNL1        0.0191
      6 C         144.5115  141.6038  161.3542 C.3     1  UNL1        0.0062
      7 C         144.0526  141.6979  159.9292 C.3     1  UNL1        0.0277
      8 C         143.5459  140.6049  159.0356 C.ar    1  UNL1       -0.0063
      9 C         143.1907  141.1291  157.6758 C.ar    1  UNL1       -0.0014
     10 C         142.6624  140.1962  156.6268 C.ar    1  UNL1        0.0203
     11 C         142.4894  138.7389  156.9376 C.ar    1  UNL1        0.0985
     12 N         142.8446  138.2147  158.2973 N.ar    1  UNL1       -0.2461
     13 C         143.3729  139.1477  159.3463 C.ar    1  UNL1        0.0817
     14 H         143.6006  136.5754  161.4882 H       1  UNL1        0.2108
     15 N         144.1431  140.5747  164.7927 N.3     1  UNL1       -0.2727
     16 C         143.8433  139.2622  165.4543 C.3     1  UNL1        0.0724
     17 C         142.8994  139.2077  166.6188 C.3     1  UNL1        0.0218
     18 C         142.2552  140.4655  167.1216 C.3     1  UNL1        0.0268
     19 C         142.5549  141.7779  166.4600 C.3     1  UNL1        0.0218
     20 C         143.4989  141.8325  165.2955 C.3     1  UNL1        0.0724
     21 C         141.3112  140.4109  168.2861 C.ar    1  UNL1       -0.0013
     22 C         139.8571  140.1207  168.0599 C.ar    1  UNL1        0.0545
     23 CL        139.3468  139.8851  166.6691 Cl      1  UNL1       -0.0825
     24 C         138.9132  140.0661  169.2243 C.ar    1  UNL1        0.0111
     25 C         139.4234  140.3018  170.6151 C.ar    1  UNL1        0.0017
     26 C         140.8775  140.5920  170.8413 C.ar    1  UNL1        0.0111
     27 C         141.8214  140.6466  169.6769 C.ar    1  UNL1        0.0545
     28 CL        143.2757  140.9368  169.9031 Cl      1  UNL1       -0.0825
@<TRIPOS>BOND
     1     3     2    1
     2     3     4    1
     3     4     5    1
     4     5     1    1
     5     1    15    1
     6    15    16    1
     7    16    17    1
     8    17    18    1
     9    18    21    1
    10    21    22   ar
    11    22    23    1
    12    22    24   ar
    13    24    25   ar
    14    25    26   ar
    15    26    27   ar
    16    27    28    1
    17    18    19    1
    18    19    20    1
    19     5     6    1
    20     6     7    1
    21     7     8    1
    22     8     9   ar
    23     9    10   ar
    24    10    11   ar
    25    11    12   ar
    26    12    13   ar
    27    13     3    1
    28    20    15    1
    29    13     8   ar
    30    27    21   ar
    31     2    14    1
@<TRIPOS>MOLECULE
*****
 28 31 0 0 0
SMALL
GASTEIGER

@<TRIPOS>ATOM
      1 C         140.8376  137.2696  163.6958 C.3     1  UNL1        0.0721
      2 O         137.0376  139.2858  161.0536 O.3     1  UNL1       -0.3785
      3 C         138.4941  138.9455  160.9400 C.3     1  UNL1        0.1498
      4 C         139.1121  138.3166  162.1536 C.3     1  UNL1        0.0368
      5 C         140.5286  137.8661  162.3547 C.3     1  UNL1        0.0191
      6 C         141.6770  137.9331  161.3920 C.3     1  UNL1        0.0062
      7 C         141.6924  138.4673  159.9904 C.3     1  UNL1        0.0277
      8 C         140.5634  139.0663  159.2053 C.ar    1  UNL1       -0.0063
      9 C         141.0074  139.4765  157.8325 C.ar    1  UNL1       -0.0014
     10 C         140.0281  140.0995  156.8824 C.ar    1  UNL1        0.0203
     11 C         138.6047  140.3123  157.3050 C.ar    1  UNL1        0.0985
     12 N         138.1606  139.9022  158.6778 N.ar    1  UNL1       -0.2461
     13 C         139.1399  139.2792  159.6279 C.ar    1  UNL1        0.0817
     14 H         136.7142  139.0334  161.9326 H       1  UNL1        0.2108
     15 N         140.9996  138.1589  164.8928 N.3     1  UNL1       -0.2727
     16 C         139.7906  138.6366  165.6414 C.3     1  UNL1        0.0724
     17 C         139.9525  139.5258  166.8384 C.3     1  UNL1        0.0218
     18 C         141.3234  139.9375  167.2869 C.3     1  UNL1        0.0268
     19 C         142.5324  139.4599  166.5385 C.3     1  UNL1        0.0218
     20 C         142.3705  138.5705  165.3414 C.3     1  UNL1        0.0724
     21 C         141.4853  140.8268  168.4840 C.ar    1  UNL1       -0.0013
     22 C         142.0137  140.2644  169.7702 C.ar    1  UNL1        0.0545
     23 CL        142.3802  138.8126  169.8595 Cl      1  UNL1       -0.0825
     24 C         142.1756  141.1537  170.9672 C.ar    1  UNL1        0.0111
     25 C         141.8090  142.6055  170.8780 C.ar    1  UNL1        0.0017
     26 C         141.2806  143.1679  169.5918 C.ar    1  UNL1        0.0111
     27 C         141.1188  142.2786  168.3948 C.ar    1  UNL1        0.0545
     28 CL        140.5904  142.8411  167.1085 Cl      1  UNL1       -0.0825
@<TRIPOS>BOND
     1     3     2    1
     2     3     4    1
     3     4     5    1
     4     5     1    1
     5     1    15    1
     6    15    16    1
     7    16    17    1
     8    17    18    1
     9    18    21    1
    10    21    22   ar
    11    22    23    1
    12    22    24   ar
    13    24    25   ar
    14    25    26   ar
    15    26    27   ar
    16    27    28    1
    17    18    19    1
    18    19    20    1
    19     5     6    1
    20     6     7    1
    21     7     8    1
    22     8     9   ar
    23     9    10   ar
    24    10    11   ar
    25    11    12   ar
    26    12    13   ar
    27    13     3    1
    28    20    15    1
    29    13     8   ar
    30    27    21   ar
    31     2    14    1
@<TRIPOS>MOLECULE
*****
 28 31 0 0 0
SMALL
GASTEIGER

@<TRIPOS>ATOM
      1 C         144.0996  138.9427  163.4385 C.3     1  UNL1        0.0721
      2 O         139.6306  137.6050  161.5086 O.3     1  UNL1       -0.3785
      3 C         140.9421  138.2175  161.1149 C.3     1  UNL1        0.1498
      4 C         141.9482  138.3656  162.2175 C.3     1  UNL1        0.0368
      5 C         143.3348  138.9337  162.1482 C.3     1  UNL1        0.0191
      6 C         144.0576  139.4940  160.9592 C.3     1  UNL1        0.0062
      7 C         143.5723  139.6245  159.5459 C.3     1  UNL1        0.0277
      8 C         142.2445  139.2270  158.9724 C.ar    1  UNL1       -0.0063
      9 C         142.1674  139.5323  157.5059 C.ar    1  UNL1       -0.0014
     10 C         140.9197  139.2113  156.7376 C.ar    1  UNL1        0.0203
     11 C         139.7491  138.5852  157.4359 C.ar    1  UNL1        0.0985
     12 N         139.8262  138.2799  158.9024 N.ar    1  UNL1       -0.2461
     13 C         141.0739  138.6008  159.6707 C.ar    1  UNL1        0.0817
     14 H         139.6438  137.3934  162.4551 H       1  UNL1        0.2108
     15 N         143.4643  139.4877  164.6832 N.3     1  UNL1       -0.2727
     16 C         142.8594  140.8604  164.6772 C.3     1  UNL1        0.0724
     17 C         142.2241  141.4054  165.9219 C.3     1  UNL1        0.0218
     18 C         142.1936  140.5778  167.1726 C.3     1  UNL1        0.0268
     19 C         142.7985  139.2053  167.1786 C.3     1  UNL1        0.0218
     20 C         143.4339  138.6602  165.9338 C.3     1  UNL1        0.0724
     21 C         141.5583  141.1229  168.4173 C.ar    1  UNL1       -0.0013
     22 C         140.1379  140.7733  168.7493 C.ar    1  UNL1        0.0545
     23 CL        139.3528  139.8785  167.8365 Cl      1  UNL1       -0.0825
     24 C         139.5026  141.3183  169.9939 C.ar    1  UNL1        0.0111
     25 C         140.2877  142.2131  170.9066 C.ar    1  UNL1        0.0017
     26 C         141.7081  142.5628  170.5747 C.ar    1  UNL1        0.0111
     27 C         142.3434  142.0177  169.3300 C.ar    1  UNL1        0.0545
     28 CL        143.7638  142.3674  168.9980 Cl      1  UNL1       -0.0825
@<TRIPOS>BOND
     1     3     2    1
     2     3     4    1
     3     4     5    1
     4     5     1    1
     5     1    15    1
     6    15    16    1
     7    16    17    1
     8    17    18    1
     9    18    21    1
    10    21    22   ar
    11    22    23    1
    12    22    24   ar
    13    24    25   ar
    14    25    26   ar
    15    26    27   ar
    16    27    28    1
    17    18    19    1
    18    19    20    1
    19     5     6    1
    20     6     7    1
    21     7     8    1
    22     8     9   ar
    23     9    10   ar
    24    10    11   ar
    25    11    12   ar
    26    12    13   ar
    27    13     3    1
    28    20    15    1
    29    13     8   ar
    30    27    21   ar
    31     2    14    1
@<TRIPOS>MOLECULE
*****
 28 31 0 0 0
SMALL
GASTEIGER

@<TRIPOS>ATOM
      1 C         143.9437  138.7646  163.4026 C.3     1  UNL1        0.0721
      2 O         139.4809  137.6202  161.3385 O.3     1  UNL1       -0.3785
      3 C         140.8188  138.2029  160.9912 C.3     1  UNL1        0.1498
      4 C         141.8039  138.2887  162.1192 C.3     1  UNL1        0.0368
      5 C         143.2081  138.8156  162.0963 C.3     1  UNL1        0.0191
      6 C         143.9741  139.3867  160.9400 C.3     1  UNL1        0.0062
      7 C         143.5249  139.5720  159.5209 C.3     1  UNL1        0.0277
      8 C         142.1989  139.2320  158.9075 C.ar    1  UNL1       -0.0063
      9 C         142.1641  139.5808  157.4491 C.ar    1  UNL1       -0.0014
     10 C         140.9249  139.3203  156.6451 C.ar    1  UNL1        0.0203
     11 C         139.7206  138.7110  157.2995 C.ar    1  UNL1        0.0985
     12 N         139.7554  138.3621  158.7579 N.ar    1  UNL1       -0.2461
     13 C         140.9946  138.6226  159.5619 C.ar    1  UNL1        0.0817
     14 H         139.4664  137.3816  162.2786 H       1  UNL1        0.2108
     15 N         143.3251  139.3544  164.6352 N.3     1  UNL1       -0.2727
     16 C         143.3567  138.5938  165.9278 C.3     1  UNL1        0.0724
     17 C         142.7381  139.1837  167.1604 C.3     1  UNL1        0.0218
     18 C         142.0878  140.5340  167.1005 C.3     1  UNL1        0.0268
     19 C         142.0561  141.2946  165.8081 C.3     1  UNL1        0.0218
     20 C         142.6748  140.7048  164.5754 C.3     1  UNL1        0.0724
     21 C         141.4692  141.1239  168.3332 C.ar    1  UNL1       -0.0013
     22 C         142.2500  142.0876  169.1766 C.ar    1  UNL1        0.0545
     23 CL        143.6495  142.4616  168.7874 Cl      1  UNL1       -0.0825
     24 C         141.6314  142.6774  170.4092 C.ar    1  UNL1        0.0111
     25 C         140.2319  142.3034  170.7985 C.ar    1  UNL1        0.0017
     26 C         139.4510  141.3396  169.9551 C.ar    1  UNL1        0.0111
     27 C         140.0697  140.7498  168.7225 C.ar    1  UNL1        0.0545
     28 CL        139.2888  139.7860  167.8790 Cl      1  UNL1       -0.0825
@<TRIPOS>BOND
     1     3     2    1
     2     3     4    1
     3     4     5    1
     4     5     1    1
     5     1    15    1
     6    15    16    1
     7    16    17    1
     8    17    18    1
     9    18    21    1
    10    21    22   ar
    11    22    23    1
    12    22    24   ar
    13    24    25   ar
    14    25    26   ar
    15    26    27   ar
    16    27    28    1
    17    18    19    1
    18    19    20    1
    19     5     6    1
    20     6     7    1
    21     7     8    1
    22     8     9   ar
    23     9    10   ar
    24    10    11   ar
    25    11    12   ar
    26    12    13   ar
    27    13     3    1
    28    20    15    1
    29    13     8   ar
    30    27    21   ar
    31     2    14    1
@<TRIPOS>MOLECULE
*****
 28 31 0 0 0
SMALL
GASTEIGER

@<TRIPOS>ATOM
      1 C         138.5891  138.7269  163.5366 C.3     1  UNL1        0.0721
      2 O         137.6001  143.1748  161.3632 O.3     1  UNL1       -0.3785
      3 C         138.0926  141.7953  161.0400 C.3     1  UNL1        0.1498
      4 C         138.1745  140.8456  162.1981 C.3     1  UNL1        0.0368
      5 C         138.6221  139.4139  162.2036 C.3     1  UNL1        0.0191
      6 C         139.0983  138.5784  161.0524 C.3     1  UNL1        0.0062
      7 C         139.2445  138.9683  159.6114 C.3     1  UNL1        0.0277
      8 C         138.9506  140.2899  158.9656 C.ar    1  UNL1       -0.0063
      9 C         139.2355  140.2558  157.4933 C.ar    1  UNL1       -0.0014
     10 C         139.0077  141.4798  156.6568 C.ar    1  UNL1        0.0203
     11 C         138.4951  142.7380  157.2926 C.ar    1  UNL1        0.0985
     12 N         138.2102  142.7721  158.7649 N.ar    1  UNL1       -0.2461
     13 C         138.4380  141.5480  159.6014 C.ar    1  UNL1        0.0817
     14 H         137.4048  143.2345  162.3114 H       1  UNL1        0.2108
     15 N         139.2989  139.3333  164.7107 N.3     1  UNL1       -0.2727
     16 C         140.6158  140.0246  164.5158 C.3     1  UNL1        0.0724
     17 C         141.3255  140.6310  165.6898 C.3     1  UNL1        0.0218
     18 C         140.7184  140.5462  167.0589 C.3     1  UNL1        0.0268
     19 C         139.4016  139.8549  167.2538 C.3     1  UNL1        0.0218
     20 C         138.6918  139.2484  166.0797 C.3     1  UNL1        0.0724
     21 C         141.4283  141.1526  168.2330 C.ar    1  UNL1       -0.0013
     22 C         141.1019  142.5511  168.6661 C.ar    1  UNL1        0.0545
     23 CL        140.0657  143.3432  167.9252 Cl      1  UNL1       -0.0825
     24 C         141.8117  143.1575  169.8401 C.ar    1  UNL1        0.0111
     25 C         142.8479  142.3654  170.5810 C.ar    1  UNL1        0.0017
     26 C         143.1743  140.9669  170.1479 C.ar    1  UNL1        0.0111
     27 C         142.4645  140.3605  168.9738 C.ar    1  UNL1        0.0545
     28 CL        142.7908  138.9620  168.5406 Cl      1  UNL1       -0.0825
@<TRIPOS>BOND
     1     3     2    1
     2     3     4    1
     3     4     5    1
     4     5     1    1
     5     1    15    1
     6    15    16    1
     7    16    17    1
     8    17    18    1
     9    18    21    1
    10    21    22   ar
    11    22    23    1
    12    22    24   ar
    13    24    25   ar
    14    25    26   ar
    15    26    27   ar
    16    27    28    1
    17    18    19    1
    18    19    20    1
    19     5     6    1
    20     6     7    1
    21     7     8    1
    22     8     9   ar
    23     9    10   ar
    24    10    11   ar
    25    11    12   ar
    26    12    13   ar
    27    13     3    1
    28    20    15    1
    29    13     8   ar
    30    27    21   ar
    31     2    14    1
