@<TRIPOS>MOLECULE
*****
 33 37 0 0 0
SMALL
GASTEIGER

@<TRIPOS>ATOM
      1 N         142.4687  140.0969  166.2988 N.ar    1  UNL1       -0.2690
      2 C         143.0015  138.9597  165.4784 C.ar    1  UNL1        0.1975
      3 N         143.6207  137.9637  166.4135 N.ar    1  UNL1       -0.1218
      4 N         143.4707  138.4853  167.8119 N.ar    1  UNL1       -0.1279
      5 C         142.7587  139.8036  167.7410 C.ar    1  UNL1        0.1707
      6 C         140.3690  143.7471  164.7121 C.ar    1  UNL1        0.1388
      7 C         139.5894  142.6869  165.4320 C.ar    1  UNL1        0.0384
      8 C         140.2893  141.4702  165.9609 C.ar    1  UNL1        0.0207
      9 C         141.7688  141.3136  165.7699 C.ar    1  UNL1        0.0674
     10 C         142.5484  142.3737  165.0500 C.ar    1  UNL1        0.0207
     11 C         141.8485  143.5904  164.5211 C.ar    1  UNL1        0.0384
     12 C         138.8792  144.8809  162.9108 C.3     1  UNL1        0.2525
     13 O         139.6691  144.9638  164.1832 O.3     1  UNL1       -0.4714
     14 C         142.3997  140.6756  168.9075 C.ar    1  UNL1        0.0394
     15 C         143.1274  141.9684  169.1295 C.ar    1  UNL1        0.0237
     16 C         142.7684  142.8404  170.2960 C.ar    1  UNL1        0.0990
     17 N         141.6818  142.4197  171.2405 N.ar    1  UNL1       -0.2423
     18 C         140.9541  141.1269  171.0186 C.ar    1  UNL1        0.0990
     19 C         141.3131  140.2549  169.8520 C.ar    1  UNL1        0.0237
     20 S         142.9279  138.8397  163.9850 S.3     1  UNL1       -0.0653
     21 C         144.1321  139.1523  163.1472 C.3     1  UNL1        0.1528
     22 C         144.2125  140.4536  162.4054 C.ar    1  UNL1        0.2480
     23 N         143.1255  141.0596  161.5679 N.ar    1  UNL1       -0.1900
     24 C         143.6351  142.3578  161.0157 C.ar    1  UNL1        0.2033
     25 N         145.0370  142.5542  161.5119 N.ar    1  UNL1       -0.0560
     26 O         145.3938  141.3773  162.3708 O.2     1  UNL1       -0.3361
     27 C         142.8761  143.2951  160.1239 C.ar    1  UNL1        0.0391
     28 C         143.1911  143.3564  158.6586 C.ar    1  UNL1        0.0028
     29 C         142.4321  144.2937  157.7668 C.ar    1  UNL1       -0.0042
     30 C         141.3580  145.1698  158.3403 C.ar    1  UNL1       -0.0218
     31 C         140.5990  146.1071  157.4486 C.3     1  UNL1        0.0310
     32 C         141.0430  145.1085  159.8056 C.ar    1  UNL1       -0.0042
     33 C         141.8020  144.1712  160.6974 C.ar    1  UNL1        0.0028
@<TRIPOS>BOND
     1    12    13    1
     2    13     6    1
     3     6     7   ar
     4     7     8   ar
     5     8     9   ar
     6     9     1    1
     7     1     2   ar
     8     2    20    1
     9    20    21    1
    10    21    22    1
    11    22    23   ar
    12    23    24   ar
    13    24    27    1
    14    27    28   ar
    15    28    29   ar
    16    29    30   ar
    17    30    31    1
    18    30    32   ar
    19    32    33   ar
    20    24    25   ar
    21    25    26   ar
    22     2     3   ar
    23     3     4   ar
    24     4     5   ar
    25     5    14    1
    26    14    15   ar
    27    15    16   ar
    28    16    17   ar
    29    17    18   ar
    30    18    19   ar
    31     9    10   ar
    32    10    11   ar
    33    11     6   ar
    34     5     1   ar
    35    19    14   ar
    36    26    22   ar
    37    33    27   ar
@<TRIPOS>MOLECULE
*****
 33 37 0 0 0
SMALL
GASTEIGER

@<TRIPOS>ATOM
      1 N         139.9526  140.1449  166.2973 N.ar    1  UNL1       -0.2690
      2 C         139.0475  139.1972  165.5676 C.ar    1  UNL1        0.1975
      3 N         138.0925  138.6087  166.5635 N.ar    1  UNL1       -0.1218
      4 N         138.4075  139.1928  167.9088 N.ar    1  UNL1       -0.1279
      5 C         139.5571  140.1422  167.7442 C.ar    1  UNL1        0.1707
      6 C         143.2718  142.5704  164.4670 C.ar    1  UNL1        0.1388
      7 C         141.8524  143.0444  164.3650 C.ar    1  UNL1        0.0384
      8 C         140.7460  142.2359  164.9751 C.ar    1  UNL1        0.0207
      9 C         141.0590  140.9534  165.6872 C.ar    1  UNL1        0.0674
     10 C         142.4785  140.4794  165.7892 C.ar    1  UNL1        0.0207
     11 C         143.5849  141.2879  165.1791 C.ar    1  UNL1        0.0384
     12 C         144.0819  144.3290  162.7347 C.3     1  UNL1        0.2525
     13 O         144.3782  143.3789  163.8569 O.3     1  UNL1       -0.4714
     14 C         140.1985  140.9475  168.8351 C.ar    1  UNL1        0.0394
     15 C         140.8097  140.2559  170.0176 C.ar    1  UNL1        0.0237
     16 C         141.4511  141.0612  171.1085 C.ar    1  UNL1        0.0990
     17 N         141.4815  142.5581  171.0169 N.ar    1  UNL1       -0.2423
     18 C         140.8704  143.2497  169.8345 C.ar    1  UNL1        0.0990
     19 C         140.2289  142.4443  168.7436 C.ar    1  UNL1        0.0237
     20 S         139.0898  138.8915  164.0997 S.3     1  UNL1       -0.0653
     21 C         137.9877  139.3700  163.2019 C.3     1  UNL1        0.1528
     22 C         138.0781  140.7220  162.5584 C.ar    1  UNL1        0.2480
     23 N         139.1268  141.1653  161.5818 N.ar    1  UNL1       -0.1900
     24 C         138.8325  142.5853  161.1985 C.ar    1  UNL1        0.2033
     25 N         137.6019  143.0197  161.9381 N.ar    1  UNL1       -0.0560
     26 O         137.1357  141.8680  162.7787 O.2     1  UNL1       -0.3361
     27 C         139.6289  143.4238  160.2432 C.ar    1  UNL1        0.0391
     28 C         140.5995  144.4404  160.7670 C.ar    1  UNL1        0.0028
     29 C         141.3960  145.2790  159.8117 C.ar    1  UNL1       -0.0042
     30 C         141.2218  145.1008  158.3326 C.ar    1  UNL1       -0.0218
     31 C         142.0182  145.9393  157.3771 C.3     1  UNL1        0.0310
     32 C         140.2512  144.0842  157.8087 C.ar    1  UNL1       -0.0042
     33 C         139.4547  143.2457  158.7640 C.ar    1  UNL1        0.0028
@<TRIPOS>BOND
     1    12    13    1
     2    13     6    1
     3     6     7   ar
     4     7     8   ar
     5     8     9   ar
     6     9     1    1
     7     1     2   ar
     8     2    20    1
     9    20    21    1
    10    21    22    1
    11    22    23   ar
    12    23    24   ar
    13    24    27    1
    14    27    28   ar
    15    28    29   ar
    16    29    30   ar
    17    30    31    1
    18    30    32   ar
    19    32    33   ar
    20    24    25   ar
    21    25    26   ar
    22     2     3   ar
    23     3     4   ar
    24     4     5   ar
    25     5    14    1
    26    14    15   ar
    27    15    16   ar
    28    16    17   ar
    29    17    18   ar
    30    18    19   ar
    31     9    10   ar
    32    10    11   ar
    33    11     6   ar
    34     5     1   ar
    35    19    14   ar
    36    26    22   ar
    37    33    27   ar
@<TRIPOS>MOLECULE
*****
 33 37 0 0 0
SMALL
GASTEIGER

@<TRIPOS>ATOM
      1 N         139.9090  140.3795  166.9872 N.ar    1  UNL1       -0.2690
      2 C         138.8268  139.3702  166.7414 C.ar    1  UNL1        0.1975
      3 N         138.1926  139.0400  168.0600 N.ar    1  UNL1       -0.1218
      4 N         138.8828  139.8451  169.1208 N.ar    1  UNL1       -0.1279
      5 C         139.9436  140.6729  168.4578 C.ar    1  UNL1        0.1707
      6 C         142.5821  142.2060  163.8618 C.ar    1  UNL1        0.1388
      7 C         143.0639  141.0391  164.6719 C.ar    1  UNL1        0.0384
      8 C         142.1729  140.4303  165.7137 C.ar    1  UNL1        0.0207
      9 C         140.8000  140.9883  165.9454 C.ar    1  UNL1        0.0674
     10 C         140.3182  142.1552  165.1354 C.ar    1  UNL1        0.0207
     11 C         141.2093  142.7640  164.0936 C.ar    1  UNL1        0.0384
     12 C         143.7111  144.2958  162.8092 C.3     1  UNL1        0.2525
     13 O         143.4732  142.8148  162.8201 O.3     1  UNL1       -0.4714
     14 C         140.8753  141.6268  169.1448 C.ar    1  UNL1        0.0394
     15 C         140.3809  142.9735  169.5831 C.ar    1  UNL1        0.0237
     16 C         141.3127  143.9274  170.2701 C.ar    1  UNL1        0.0990
     17 N         142.7388  143.5346  170.5189 N.ar    1  UNL1       -0.2423
     18 C         143.2331  142.1879  170.0807 C.ar    1  UNL1        0.0990
     19 C         142.3014  141.2340  169.3937 C.ar    1  UNL1        0.0237
     20 S         138.4457  138.7927  165.4105 S.3     1  UNL1       -0.0653
     21 C         139.2523  137.6747  164.8193 C.3     1  UNL1        0.1528
     22 C         140.1294  137.9303  163.6296 C.ar    1  UNL1        0.2480
     23 N         140.3860  139.2644  162.9938 N.ar    1  UNL1       -0.1900
     24 C         141.3190  139.0553  161.8380 C.ar    1  UNL1        0.2033
     25 N         141.6391  137.5919  161.7596 N.ar    1  UNL1       -0.0560
     26 O         140.9038  136.8966  162.8669 O.2     1  UNL1       -0.3361
     27 C         141.8405  140.1222  160.9216 C.ar    1  UNL1        0.0391
     28 C         140.9911  141.3161  160.6007 C.ar    1  UNL1        0.0028
     29 C         141.5125  142.3830  159.6842 C.ar    1  UNL1       -0.0042
     30 C         142.8834  142.2559  159.0888 C.ar    1  UNL1       -0.0218
     31 C         143.4050  143.3228  158.1723 C.3     1  UNL1        0.0310
     32 C         143.7328  141.0620  159.4098 C.ar    1  UNL1       -0.0042
     33 C         143.2113  139.9951  160.3262 C.ar    1  UNL1        0.0028
@<TRIPOS>BOND
     1    12    13    1
     2    13     6    1
     3     6     7   ar
     4     7     8   ar
     5     8     9   ar
     6     9     1    1
     7     1     2   ar
     8     2    20    1
     9    20    21    1
    10    21    22    1
    11    22    23   ar
    12    23    24   ar
    13    24    27    1
    14    27    28   ar
    15    28    29   ar
    16    29    30   ar
    17    30    31    1
    18    30    32   ar
    19    32    33   ar
    20    24    25   ar
    21    25    26   ar
    22     2     3   ar
    23     3     4   ar
    24     4     5   ar
    25     5    14    1
    26    14    15   ar
    27    15    16   ar
    28    16    17   ar
    29    17    18   ar
    30    18    19   ar
    31     9    10   ar
    32    10    11   ar
    33    11     6   ar
    34     5     1   ar
    35    19    14   ar
    36    26    22   ar
    37    33    27   ar
@<TRIPOS>MOLECULE
*****
 33 37 0 0 0
SMALL
GASTEIGER

@<TRIPOS>ATOM
      1 N         140.0267  140.7778  166.5799 N.ar    1  UNL1       -0.2690
      2 C         139.0544  139.7094  166.1762 C.ar    1  UNL1        0.1975
      3 N         138.4944  139.0962  167.4253 N.ar    1  UNL1       -0.1218
      4 N         139.1208  139.7856  168.6011 N.ar    1  UNL1       -0.1279
      5 C         140.0678  140.8249  168.0785 C.ar    1  UNL1        0.1707
      6 C         142.4034  143.3842  163.7855 C.ar    1  UNL1        0.1388
      7 C         141.0828  143.8602  164.3140 C.ar    1  UNL1        0.0384
      8 C         140.2905  142.9914  165.2455 C.ar    1  UNL1        0.0207
      9 C         140.8190  141.6466  165.6484 C.ar    1  UNL1        0.0674
     10 C         142.1396  141.1707  165.1200 C.ar    1  UNL1        0.0207
     11 C         142.9318  142.0395  164.1885 C.ar    1  UNL1        0.0384
     12 C         144.4723  143.7417  162.2552 C.3     1  UNL1        0.2525
     13 O         143.1956  144.2530  162.8541 O.3     1  UNL1       -0.4714
     14 C         140.9082  141.7491  168.9090 C.ar    1  UNL1        0.0394
     15 C         140.3278  143.0339  169.4213 C.ar    1  UNL1        0.0237
     16 C         141.1683  143.9581  170.2517 C.ar    1  UNL1        0.0990
     17 N         142.5891  143.5974  170.5698 N.ar    1  UNL1       -0.2423
     18 C         143.1694  142.3126  170.0575 C.ar    1  UNL1        0.0990
     19 C         142.3290  141.3885  169.2271 C.ar    1  UNL1        0.0237
     20 S         138.7035  139.3222  164.7701 S.3     1  UNL1       -0.0653
     21 C         137.8802  140.2449  163.9213 C.3     1  UNL1        0.1528
     22 C         138.5364  141.0636  162.8493 C.ar    1  UNL1        0.2480
     23 N         139.9156  140.8526  162.2988 N.ar    1  UNL1       -0.1900
     24 C         140.1602  141.8956  161.2489 C.ar    1  UNL1        0.2033
     25 N         138.9321  142.7513  161.1506 N.ar    1  UNL1       -0.0560
     26 O         137.9285  142.2371  162.1398 O.2     1  UNL1       -0.3361
     27 C         141.4129  142.0550  160.4394 C.ar    1  UNL1        0.0391
     28 C         141.6104  143.2800  159.5964 C.ar    1  UNL1        0.0028
     29 C         142.8631  143.4394  158.7870 C.ar    1  UNL1       -0.0042
     30 C         143.9184  142.3739  158.8205 C.ar    1  UNL1       -0.0218
     31 C         145.1712  142.5332  158.0110 C.3     1  UNL1        0.0310
     32 C         143.7209  141.1490  159.6635 C.ar    1  UNL1       -0.0042
     33 C         142.4682  140.9896  160.4730 C.ar    1  UNL1        0.0028
@<TRIPOS>BOND
     1    12    13    1
     2    13     6    1
     3     6     7   ar
     4     7     8   ar
     5     8     9   ar
     6     9     1    1
     7     1     2   ar
     8     2    20    1
     9    20    21    1
    10    21    22    1
    11    22    23   ar
    12    23    24   ar
    13    24    27    1
    14    27    28   ar
    15    28    29   ar
    16    29    30   ar
    17    30    31    1
    18    30    32   ar
    19    32    33   ar
    20    24    25   ar
    21    25    26   ar
    22     2     3   ar
    23     3     4   ar
    24     4     5   ar
    25     5    14    1
    26    14    15   ar
    27    15    16   ar
    28    16    17   ar
    29    17    18   ar
    30    18    19   ar
    31     9    10   ar
    32    10    11   ar
    33    11     6   ar
    34     5     1   ar
    35    19    14   ar
    36    26    22   ar
    37    33    27   ar
@<TRIPOS>MOLECULE
*****
 33 37 0 0 0
SMALL
GASTEIGER

@<TRIPOS>ATOM
      1 N         141.6047  140.0491  166.8583 N.ar    1  UNL1       -0.2690
      2 C         142.5479  138.9524  166.4613 C.ar    1  UNL1        0.1975
      3 N         143.3573  138.5779  167.6674 N.ar    1  UNL1       -0.1218
      4 N         142.9143  139.4431  168.8098 N.ar    1  UNL1       -0.1279
      5 C         141.8312  140.3524  168.3097 C.ar    1  UNL1        0.1707
      6 C         138.6198  142.0738  164.1673 C.ar    1  UNL1        0.1388
      7 C         138.2307  140.8382  164.9235 C.ar    1  UNL1        0.0384
      8 C         139.2256  140.1633  165.8205 C.ar    1  UNL1        0.0207
      9 C         140.6097  140.7240  165.9613 C.ar    1  UNL1        0.0674
     10 C         140.9989  141.9596  165.2051 C.ar    1  UNL1        0.0207
     11 C         140.0039  142.6345  164.3081 C.ar    1  UNL1        0.0384
     12 C         137.7848  144.2011  162.9316 C.3     1  UNL1        0.2525
     13 O         137.6248  142.7487  163.2704 O.3     1  UNL1       -0.4714
     14 C         141.1024  141.3838  169.1191 C.ar    1  UNL1        0.0394
     15 C         141.5772  142.8068  169.1231 C.ar    1  UNL1        0.0237
     16 C         140.8484  143.8383  169.9324 C.ar    1  UNL1        0.0990
     17 N         139.6450  143.4469  170.7377 N.ar    1  UNL1       -0.2423
     18 C         139.1703  142.0240  170.7337 C.ar    1  UNL1        0.0990
     19 C         139.8990  140.9925  169.9243 C.ar    1  UNL1        0.0237
     20 S         142.6617  138.3380  165.0976 S.3     1  UNL1       -0.0653
     21 C         141.5086  137.5706  164.5221 C.3     1  UNL1        0.1528
     22 C         140.8166  138.0698  163.2884 C.ar    1  UNL1        0.2480
     23 N         141.0260  139.4059  162.6395 N.ar    1  UNL1       -0.1900
     24 C         140.1325  139.4823  161.4371 C.ar    1  UNL1        0.2033
     25 N         139.3708  138.1935  161.3428 N.ar    1  UNL1       -0.0560
     26 O         139.7936  137.3205  162.4871 O.2     1  UNL1       -0.3361
     27 C         140.0203  140.6437  160.4945 C.ar    1  UNL1        0.0391
     28 C         141.2316  141.1290  159.7547 C.ar    1  UNL1        0.0028
     29 C         141.1193  142.2903  158.8120 C.ar    1  UNL1       -0.0042
     30 C         139.7958  142.9664  158.6091 C.ar    1  UNL1       -0.0218
     31 C         139.6835  144.1278  157.6665 C.3     1  UNL1        0.0310
     32 C         138.5845  142.4811  159.3489 C.ar    1  UNL1       -0.0042
     33 C         138.6967  141.3198  160.2916 C.ar    1  UNL1        0.0028
@<TRIPOS>BOND
     1    12    13    1
     2    13     6    1
     3     6     7   ar
     4     7     8   ar
     5     8     9   ar
     6     9     1    1
     7     1     2   ar
     8     2    20    1
     9    20    21    1
    10    21    22    1
    11    22    23   ar
    12    23    24   ar
    13    24    27    1
    14    27    28   ar
    15    28    29   ar
    16    29    30   ar
    17    30    31    1
    18    30    32   ar
    19    32    33   ar
    20    24    25   ar
    21    25    26   ar
    22     2     3   ar
    23     3     4   ar
    24     4     5   ar
    25     5    14    1
    26    14    15   ar
    27    15    16   ar
    28    16    17   ar
    29    17    18   ar
    30    18    19   ar
    31     9    10   ar
    32    10    11   ar
    33    11     6   ar
    34     5     1   ar
    35    19    14   ar
    36    26    22   ar
    37    33    27   ar
@<TRIPOS>MOLECULE
*****
 33 37 0 0 0
SMALL
GASTEIGER

@<TRIPOS>ATOM
      1 N         139.6123  143.7558  160.4409 N.ar    1  UNL1       -0.2690
      2 C         140.0781  145.1721  160.6053 C.ar    1  UNL1        0.1975
      3 N         140.3734  145.7242  159.2423 N.ar    1  UNL1       -0.1218
      4 N         140.0902  144.6491  158.2353 N.ar    1  UNL1       -0.1279
      5 C         139.6198  143.4326  158.9761 C.ar    1  UNL1        0.1707
      6 C         138.4047  140.9662  163.7590 C.ar    1  UNL1        0.1388
      7 C         139.7695  140.8566  163.1465 C.ar    1  UNL1        0.0384
      8 C         140.1721  141.7865  162.0404 C.ar    1  UNL1        0.0207
      9 C         139.2098  142.8259  161.5469 C.ar    1  UNL1        0.0674
     10 C         137.8450  142.9355  162.1595 C.ar    1  UNL1        0.0207
     11 C         137.4425  142.0057  163.2655 C.ar    1  UNL1        0.0384
     12 C         138.6490  138.6883  164.9842 C.3     1  UNL1        0.2525
     13 O         138.0022  140.0364  164.8651 O.3     1  UNL1       -0.4714
     14 C         139.2260  142.1227  158.3602 C.ar    1  UNL1        0.0394
     15 C         137.9601  142.0196  157.5621 C.ar    1  UNL1        0.0237
     16 C         137.5663  140.7098  156.9463 C.ar    1  UNL1        0.0990
     17 N         138.4384  139.5031  157.1284 N.ar    1  UNL1       -0.2423
     18 C         139.7043  139.6062  157.9265 C.ar    1  UNL1        0.0990
     19 C         140.0981  140.9160  158.5424 C.ar    1  UNL1        0.0237
     20 S         140.2231  145.9073  161.9047 S.3     1  UNL1       -0.0653
     21 C         141.2132  145.4347  162.9275 C.3     1  UNL1        0.1528
     22 C         140.7464  144.6462  164.1151 C.ar    1  UNL1        0.2480
     23 N         141.5549  143.6385  164.8774 N.ar    1  UNL1       -0.1900
     24 C         140.6973  143.0965  165.9823 C.ar    1  UNL1        0.2033
     25 N         139.3589  143.7691  165.9029 N.ar    1  UNL1       -0.0560
     26 O         139.3893  144.7269  164.7488 O.2     1  UNL1       -0.3361
     27 C         141.1063  142.0632  166.9898 C.ar    1  UNL1        0.0391
     28 C         142.5148  142.0344  167.5051 C.ar    1  UNL1        0.0028
     29 C         142.9238  141.0011  168.5126 C.ar    1  UNL1       -0.0042
     30 C         141.9244  139.9967  169.0049 C.ar    1  UNL1       -0.0218
     31 C         142.3332  138.9634  170.0124 C.3     1  UNL1        0.0310
     32 C         140.5159  140.0256  168.4896 C.ar    1  UNL1       -0.0042
     33 C         140.1069  141.0588  167.4821 C.ar    1  UNL1        0.0028
@<TRIPOS>BOND
     1    12    13    1
     2    13     6    1
     3     6     7   ar
     4     7     8   ar
     5     8     9   ar
     6     9     1    1
     7     1     2   ar
     8     2    20    1
     9    20    21    1
    10    21    22    1
    11    22    23   ar
    12    23    24   ar
    13    24    27    1
    14    27    28   ar
    15    28    29   ar
    16    29    30   ar
    17    30    31    1
    18    30    32   ar
    19    32    33   ar
    20    24    25   ar
    21    25    26   ar
    22     2     3   ar
    23     3     4   ar
    24     4     5   ar
    25     5    14    1
    26    14    15   ar
    27    15    16   ar
    28    16    17   ar
    29    17    18   ar
    30    18    19   ar
    31     9    10   ar
    32    10    11   ar
    33    11     6   ar
    34     5     1   ar
    35    19    14   ar
    36    26    22   ar
    37    33    27   ar
@<TRIPOS>MOLECULE
*****
 33 37 0 0 0
SMALL
GASTEIGER

@<TRIPOS>ATOM
      1 N         139.7218  140.6664  166.6076 N.ar    1  UNL1       -0.2690
      2 C         138.7806  139.5972  166.1375 C.ar    1  UNL1        0.1975
      3 N         138.2524  138.8809  167.3449 N.ar    1  UNL1       -0.1218
      4 N         138.8672  139.5074  168.5613 N.ar    1  UNL1       -0.1279
      5 C         139.7753  140.6109  168.1056 C.ar    1  UNL1        0.1707
      6 C         141.9872  143.5365  163.9844 C.ar    1  UNL1        0.1388
      7 C         140.5627  143.8243  164.3557 C.ar    1  UNL1        0.0384
      8 C         139.8076  142.8676  165.2301 C.ar    1  UNL1        0.0207
      9 C         140.4769  141.6231  165.7332 C.ar    1  UNL1        0.0674
     10 C         141.9014  141.3353  165.3618 C.ar    1  UNL1        0.0207
     11 C         142.6566  142.2920  164.4875 C.ar    1  UNL1        0.0384
     12 C         144.1018  144.1248  162.5945 C.3     1  UNL1        0.2525
     13 O         142.7423  144.4932  163.1100 O.3     1  UNL1       -0.4714
     14 C         140.5933  141.5023  168.9922 C.ar    1  UNL1        0.0394
     15 C         140.2796  142.9667  169.0782 C.ar    1  UNL1        0.0237
     16 C         141.0976  143.8582  169.9648 C.ar    1  UNL1        0.0990
     17 N         142.2293  143.2854  170.7656 N.ar    1  UNL1       -0.2423
     18 C         142.5429  141.8211  170.6796 C.ar    1  UNL1        0.0990
     19 C         141.7249  140.9296  169.7930 C.ar    1  UNL1        0.0237
     20 S         138.4293  139.2970  164.7104 S.3     1  UNL1       -0.0653
     21 C         139.3922  138.5405  163.8441 C.3     1  UNL1        0.1528
     22 C         140.3045  139.2817  162.9123 C.ar    1  UNL1        0.2480
     23 N         140.0030  140.5859  162.2352 N.ar    1  UNL1       -0.1900
     24 C         141.1906  140.9591  161.3984 C.ar    1  UNL1        0.2033
     25 N         142.2261  139.8856  161.5582 N.ar    1  UNL1       -0.0560
     26 O         141.6784  138.8489  162.4939 O.2     1  UNL1       -0.3361
     27 C         141.3201  142.1897  160.5505 C.ar    1  UNL1        0.0391
     28 C         142.4746  142.3297  159.6031 C.ar    1  UNL1        0.0028
     29 C         142.6041  143.5603  158.7553 C.ar    1  UNL1       -0.0042
     30 C         141.5790  144.6508  158.8548 C.ar    1  UNL1       -0.0218
     31 C         141.7083  145.8815  158.0070 C.3     1  UNL1        0.0310
     32 C         140.4245  144.5108  159.8022 C.ar    1  UNL1       -0.0042
     33 C         140.2950  143.2802  160.6500 C.ar    1  UNL1        0.0028
@<TRIPOS>BOND
     1    12    13    1
     2    13     6    1
     3     6     7   ar
     4     7     8   ar
     5     8     9   ar
     6     9     1    1
     7     1     2   ar
     8     2    20    1
     9    20    21    1
    10    21    22    1
    11    22    23   ar
    12    23    24   ar
    13    24    27    1
    14    27    28   ar
    15    28    29   ar
    16    29    30   ar
    17    30    31    1
    18    30    32   ar
    19    32    33   ar
    20    24    25   ar
    21    25    26   ar
    22     2     3   ar
    23     3     4   ar
    24     4     5   ar
    25     5    14    1
    26    14    15   ar
    27    15    16   ar
    28    16    17   ar
    29    17    18   ar
    30    18    19   ar
    31     9    10   ar
    32    10    11   ar
    33    11     6   ar
    34     5     1   ar
    35    19    14   ar
    36    26    22   ar
    37    33    27   ar
@<TRIPOS>MOLECULE
*****
 33 37 0 0 0
SMALL
GASTEIGER

@<TRIPOS>ATOM
      1 N         139.2362  141.1601  160.4009 N.ar    1  UNL1       -0.2690
      2 C         138.2080  140.0867  160.1992 C.ar    1  UNL1        0.1975
      3 N         137.8142  140.0882  158.7519 N.ar    1  UNL1       -0.1218
      4 N         138.5990  141.1624  158.0590 N.ar    1  UNL1       -0.1279
      5 C         139.4778  141.8249  159.0782 C.ar    1  UNL1        0.1707
      6 C         141.2436  142.2027  164.2911 C.ar    1  UNL1        0.1388
      7 C         142.0138  141.4957  163.2156 C.ar    1  UNL1        0.0384
      8 C         141.3447  141.1482  161.9189 C.ar    1  UNL1        0.0207
      9 C         139.9053  141.5076  161.6977 C.ar    1  UNL1        0.0674
     10 C         139.1351  142.2146  162.7732 C.ar    1  UNL1        0.0207
     11 C         139.8042  142.5621  164.0699 C.ar    1  UNL1        0.0384
     12 C         143.4093  142.6110  165.6669 C.3     1  UNL1        0.2525
     13 O         141.9127  142.5502  165.5879 O.3     1  UNL1       -0.4714
     14 C         140.4310  142.9540  158.8199 C.ar    1  UNL1        0.0394
     15 C         141.6199  142.7431  157.9298 C.ar    1  UNL1        0.0237
     16 C         142.5731  143.8722  157.6716 C.ar    1  UNL1        0.0990
     17 N         142.3374  145.2121  158.3033 N.ar    1  UNL1       -0.2423
     18 C         141.1485  145.4229  159.1933 C.ar    1  UNL1        0.0990
     19 C         140.1954  144.2938  159.4516 C.ar    1  UNL1        0.0237
     20 S         137.6684  139.1724  161.2589 S.3     1  UNL1       -0.0653
     21 C         138.4073  137.9160  161.6128 C.3     1  UNL1        0.1528
     22 C         139.4101  137.9245  162.7282 C.ar    1  UNL1        0.2480
     23 N         139.3623  138.7931  163.9502 N.ar    1  UNL1       -0.1900
     24 C         140.5595  138.4714  164.7947 C.ar    1  UNL1        0.2033
     25 N         141.3473  137.4039  164.0947 N.ar    1  UNL1       -0.0560
     26 O         140.6369  137.0659  162.8175 O.2     1  UNL1       -0.3361
     27 C         140.9079  139.1057  166.1086 C.ar    1  UNL1        0.0391
     28 C         139.8305  139.7137  166.9570 C.ar    1  UNL1        0.0028
     29 C         140.1789  140.3480  168.2709 C.ar    1  UNL1       -0.0042
     30 C         141.6046  140.3743  168.7364 C.ar    1  UNL1       -0.0218
     31 C         141.9530  141.0086  170.0502 C.3     1  UNL1        0.0310
     32 C         142.6819  139.7664  167.8880 C.ar    1  UNL1       -0.0042
     33 C         142.3335  139.1321  166.5741 C.ar    1  UNL1        0.0028
@<TRIPOS>BOND
     1    12    13    1
     2    13     6    1
     3     6     7   ar
     4     7     8   ar
     5     8     9   ar
     6     9     1    1
     7     1     2   ar
     8     2    20    1
     9    20    21    1
    10    21    22    1
    11    22    23   ar
    12    23    24   ar
    13    24    27    1
    14    27    28   ar
    15    28    29   ar
    16    29    30   ar
    17    30    31    1
    18    30    32   ar
    19    32    33   ar
    20    24    25   ar
    21    25    26   ar
    22     2     3   ar
    23     3     4   ar
    24     4     5   ar
    25     5    14    1
    26    14    15   ar
    27    15    16   ar
    28    16    17   ar
    29    17    18   ar
    30    18    19   ar
    31     9    10   ar
    32    10    11   ar
    33    11     6   ar
    34     5     1   ar
    35    19    14   ar
    36    26    22   ar
    37    33    27   ar
@<TRIPOS>MOLECULE
*****
 33 37 0 0 0
SMALL
GASTEIGER

@<TRIPOS>ATOM
      1 N         142.5657  140.3962  159.6530 N.ar    1  UNL1       -0.2690
      2 C         142.2793  139.4000  158.5688 C.ar    1  UNL1        0.1975
      3 N         143.1787  138.2176  158.7763 N.ar    1  UNL1       -0.1218
      4 N         144.0210  138.4831  159.9888 N.ar    1  UNL1       -0.1279
      5 C         143.6421  139.8295  160.5306 C.ar    1  UNL1        0.1707
      6 C         140.5497  144.3847  160.1802 C.ar    1  UNL1        0.1388
      7 C         141.4992  144.1692  159.0391 C.ar    1  UNL1        0.0384
      8 C         142.1712  142.8397  158.8634 C.ar    1  UNL1        0.0207
      9 C         141.8937  141.7257  159.8287 C.ar    1  UNL1        0.0674
     10 C         140.9442  141.9411  160.9698 C.ar    1  UNL1        0.0207
     11 C         140.2722  143.2706  161.1455 C.ar    1  UNL1        0.0384
     12 C         139.6642  146.2705  161.7324 C.3     1  UNL1        0.2525
     13 O         139.8777  145.7141  160.3559 O.3     1  UNL1       -0.4714
     14 C         144.2356  140.4928  161.7380 C.ar    1  UNL1        0.0394
     15 C         144.6684  141.9274  161.6689 C.ar    1  UNL1        0.0237
     16 C         145.2618  142.5907  162.8764 C.ar    1  UNL1        0.0990
     17 N         145.4224  141.8195  164.1528 N.ar    1  UNL1       -0.2423
     18 C         144.9896  140.3850  164.2219 C.ar    1  UNL1        0.0990
     19 C         144.3962  139.7217  163.0145 C.ar    1  UNL1        0.0237
     20 S         141.2706  139.5583  157.4700 S.3     1  UNL1       -0.0653
     21 C         139.8966  138.9766  157.6236 C.3     1  UNL1        0.1528
     22 C         139.0940  139.2643  158.8578 C.ar    1  UNL1        0.2480
     23 N         139.5038  138.9567  160.2675 N.ar    1  UNL1       -0.1900
     24 C         138.4038  139.4124  161.1799 C.ar    1  UNL1        0.2033
     25 N         137.3141  140.0016  160.3340 N.ar    1  UNL1       -0.0560
     26 O         137.7407  139.9100  158.8988 O.2     1  UNL1       -0.3361
     27 C         138.3949  139.2988  162.6755 C.ar    1  UNL1        0.0391
     28 C         138.0165  140.4826  163.5154 C.ar    1  UNL1        0.0028
     29 C         138.0076  140.3691  165.0110 C.ar    1  UNL1       -0.0042
     30 C         138.3772  139.0717  165.6669 C.ar    1  UNL1       -0.0218
     31 C         138.3684  138.9580  167.1625 C.3     1  UNL1        0.0310
     32 C         138.7557  137.8879  164.8270 C.ar    1  UNL1       -0.0042
     33 C         138.7646  138.0014  163.3313 C.ar    1  UNL1        0.0028
@<TRIPOS>BOND
     1    12    13    1
     2    13     6    1
     3     6     7   ar
     4     7     8   ar
     5     8     9   ar
     6     9     1    1
     7     1     2   ar
     8     2    20    1
     9    20    21    1
    10    21    22    1
    11    22    23   ar
    12    23    24   ar
    13    24    27    1
    14    27    28   ar
    15    28    29   ar
    16    29    30   ar
    17    30    31    1
    18    30    32   ar
    19    32    33   ar
    20    24    25   ar
    21    25    26   ar
    22     2     3   ar
    23     3     4   ar
    24     4     5   ar
    25     5    14    1
    26    14    15   ar
    27    15    16   ar
    28    16    17   ar
    29    17    18   ar
    30    18    19   ar
    31     9    10   ar
    32    10    11   ar
    33    11     6   ar
    34     5     1   ar
    35    19    14   ar
    36    26    22   ar
    37    33    27   ar
