@<TRIPOS>MOLECULE
*****
 32 36 0 0 0
SMALL
GASTEIGER

@<TRIPOS>ATOM
      1 N         142.1569  138.3548  163.3347 N.3     1  UNL1       -0.2719
      2 C         143.3814  138.4627  162.4751 C.3     1  UNL1        0.0722
      3 C         144.2201  139.5890  163.0026 C.3     1  UNL1        0.0190
      4 C         143.5138  140.1771  164.1881 C.3     1  UNL1        0.0201
      5 C         144.5452  141.2263  164.4804 C.3     1  UNL1        0.0061
      6 C         143.3206  141.1183  165.3399 C.3     1  UNL1        0.0237
      7 C         142.2387  139.4143  164.3933 C.3     1  UNL1        0.0724
      8 C         142.5021  141.5994  166.5012 C.ar    1  UNL1       -0.0225
      9 C         141.2598  142.4050  166.2606 C.ar    1  UNL1       -0.0043
     10 C         140.4413  142.8861  167.4219 C.ar    1  UNL1        0.0035
     11 C         140.8650  142.5615  168.8237 C.ar    1  UNL1        0.0714
     12 C         142.1072  141.7559  169.0643 C.ar    1  UNL1        0.0035
     13 C         142.9257  141.2748  167.9030 C.ar    1  UNL1       -0.0043
     14 C         140.0464  143.0426  169.9849 C.3     1  UNL1        0.4186
     15 F         139.2278  143.5237  171.1463 F       1  UNL1       -0.1659
     16 F         139.3081  141.7370  170.0054 F       1  UNL1       -0.1659
     17 F         140.7847  144.3481  169.9645 F       1  UNL1       -0.1659
     18 C         141.0455  137.3617  163.1653 C.3     1  UNL1        0.0843
     19 C         139.6175  137.8114  163.2561 C.3     1  UNL1        0.0824
     20 S         138.9788  138.5190  162.0979 S.3     1  UNL1       -0.0742
     21 C         138.7397  142.3930  162.0832 C.ar    1  UNL1        0.2029
     22 N         137.4151  142.0231  162.6822 N.ar    1  UNL1       -0.1250
     23 N         137.3434  140.5269  162.7606 N.ar    1  UNL1       -0.1220
     24 C         138.6237  139.9720  162.2101 C.ar    1  UNL1        0.1933
     25 N         139.4866  141.1254  161.7915 N.ar    1  UNL1       -0.2859
     26 C         140.8561  141.0281  161.1872 C.3     1  UNL1        0.1341
     27 C         139.0201  144.7748  164.2964 C.3     1  UNL1        0.0556
     28 C         139.3599  144.8808  162.8392 C.ar    1  UNL1        0.1001
     29 N         139.8882  146.1001  162.1435 N.ar    1  UNL1       -0.2085
     30 C         140.0859  145.7589  160.6962 C.ar    1  UNL1        0.2849
     31 O         139.6797  144.3287  160.4975 O.2     1  UNL1       -0.4283
     32 C         139.2310  143.7860  161.8219 C.ar    1  UNL1        0.1964
@<TRIPOS>BOND
     1    27    28    1
     2    28    29   ar
     3    29    30   ar
     4    30    31   ar
     5    31    32   ar
     6    32    21    1
     7    21    22   ar
     8    22    23   ar
     9    23    24   ar
    10    24    20    1
    11    20    19    1
    12    19    18    1
    13    18     1    1
    14     1     2    1
    15     2     3    1
    16     4     3    1
    17     4     5    1
    18     5     6    1
    19     6     8    1
    20     8     9   ar
    21     9    10   ar
    22    10    11   ar
    23    11    14    1
    24    14    15    1
    25    14    16    1
    26    14    17    1
    27    11    12   ar
    28    12    13   ar
    29     4     7    1
    30    24    25   ar
    31    25    26    1
    32    32    28   ar
    33    25    21   ar
    34     7     1    1
    35     6     4    1
    36    13     8   ar
@<TRIPOS>MOLECULE
*****
 32 36 0 0 0
SMALL
GASTEIGER

@<TRIPOS>ATOM
      1 N         137.9888  141.6255  162.7134 N.3     1  UNL1       -0.2719
      2 C         137.4714  140.6624  161.6864 C.3     1  UNL1        0.0722
      3 C         137.9312  139.2866  162.0681 C.3     1  UNL1        0.0190
      4 C         138.7328  139.3994  163.3309 C.3     1  UNL1        0.0201
      5 C         139.0384  137.9360  163.4539 C.3     1  UNL1        0.0061
      6 C         139.5559  138.8991  164.4808 C.3     1  UNL1        0.0237
      7 C         138.7685  140.8450  163.7297 C.3     1  UNL1        0.0724
      8 C         140.3298  139.1664  165.7376 C.ar    1  UNL1       -0.0225
      9 C         139.6307  139.7126  166.9471 C.ar    1  UNL1       -0.0043
     10 C         140.4046  139.9798  168.2039 C.ar    1  UNL1        0.0035
     11 C         141.8777  139.7009  168.2512 C.ar    1  UNL1        0.0714
     12 C         142.5768  139.1547  167.0417 C.ar    1  UNL1        0.0035
     13 C         141.8029  138.8874  165.7849 C.ar    1  UNL1       -0.0043
     14 C         142.6516  139.9681  169.5080 C.3     1  UNL1        0.4186
     15 F         143.4256  140.2354  170.7649 F       1  UNL1       -0.1659
     16 F         143.2630  141.1820  168.8734 F       1  UNL1       -0.1659
     17 F         142.0403  138.7542  170.1426 F       1  UNL1       -0.1659
     18 C         137.7658  143.1088  162.7225 C.3     1  UNL1        0.0843
     19 C         137.7196  143.8524  164.0244 C.3     1  UNL1        0.0824
     20 S         138.9419  144.5622  164.5266 S.3     1  UNL1       -0.0742
     21 C         142.3150  142.6460  164.6509 C.ar    1  UNL1        0.2029
     22 N         141.8560  142.5176  166.0733 N.ar    1  UNL1       -0.1250
     23 N         140.5366  143.2198  166.1998 N.ar    1  UNL1       -0.1220
     24 C         140.1801  143.7822  164.8557 C.ar    1  UNL1        0.1933
     25 N         141.2791  143.4275  163.8985 N.ar    1  UNL1       -0.2859
     26 C         141.3330  143.7907  162.4441 C.3     1  UNL1        0.1341
     27 C         142.5413  140.2990  162.3948 C.3     1  UNL1        0.0556
     28 C         143.6905  141.0116  163.0441 C.ar    1  UNL1        0.1001
     29 N         145.1455  140.7705  162.7705 N.ar    1  UNL1       -0.2085
     30 C         145.9407  141.7003  163.6384 C.ar    1  UNL1        0.2849
     31 O         144.9771  142.5160  164.4484 O.2     1  UNL1       -0.4283
     32 C         143.5865  142.0904  164.0812 C.ar    1  UNL1        0.1964
@<TRIPOS>BOND
     1    27    28    1
     2    28    29   ar
     3    29    30   ar
     4    30    31   ar
     5    31    32   ar
     6    32    21    1
     7    21    22   ar
     8    22    23   ar
     9    23    24   ar
    10    24    20    1
    11    20    19    1
    12    19    18    1
    13    18     1    1
    14     1     2    1
    15     2     3    1
    16     4     3    1
    17     4     5    1
    18     5     6    1
    19     6     8    1
    20     8     9   ar
    21     9    10   ar
    22    10    11   ar
    23    11    14    1
    24    14    15    1
    25    14    16    1
    26    14    17    1
    27    11    12   ar
    28    12    13   ar
    29     4     7    1
    30    24    25   ar
    31    25    26    1
    32    32    28   ar
    33    25    21   ar
    34     7     1    1
    35     6     4    1
    36    13     8   ar
@<TRIPOS>MOLECULE
*****
 32 36 0 0 0
SMALL
GASTEIGER

@<TRIPOS>ATOM
      1 N         141.3914  138.2966  163.2242 N.3     1  UNL1       -0.2719
      2 C         140.1236  137.5899  162.8457 C.3     1  UNL1        0.0722
      3 C         139.1131  137.8406  163.9255 C.3     1  UNL1        0.0190
      4 C         139.7563  138.7021  164.9714 C.3     1  UNL1        0.0201
      5 C         138.5590  138.7758  165.8719 C.3     1  UNL1        0.0061
      6 C         139.8268  139.4825  166.2505 C.3     1  UNL1        0.0237
      7 C         141.1644  138.9840  164.5380 C.3     1  UNL1        0.0724
      8 C         140.5994  140.3411  167.2075 C.ar    1  UNL1       -0.0225
      9 C         141.7397  139.7563  167.9871 C.ar    1  UNL1       -0.0043
     10 C         142.5123  140.6149  168.9441 C.ar    1  UNL1        0.0035
     11 C         142.1446  142.0582  169.1215 C.ar    1  UNL1        0.0714
     12 C         141.0043  142.6430  168.3420 C.ar    1  UNL1        0.0035
     13 C         140.2317  141.7845  167.3849 C.ar    1  UNL1       -0.0043
     14 C         142.9173  142.9168  170.0786 C.3     1  UNL1        0.4186
     15 F         143.6899  143.7754  171.0356 F       1  UNL1       -0.1659
     16 F         144.0757  141.9677  169.9948 F       1  UNL1       -0.1659
     17 F         141.7588  143.8659  170.1623 F       1  UNL1       -0.1659
     18 C         142.6630  138.3131  162.4287 C.3     1  UNL1        0.0843
     19 C         143.9352  138.7982  163.0581 C.3     1  UNL1        0.0824
     20 S         144.3667  140.2231  162.8752 S.3     1  UNL1       -0.0742
     21 C         141.8145  143.1126  163.3248 C.ar    1  UNL1        0.2029
     22 N         142.3827  143.0096  164.7093 N.ar    1  UNL1       -0.1250
     23 N         143.4079  141.9147  164.7094 N.ar    1  UNL1       -0.1220
     24 C         143.4734  141.3409  163.3250 C.ar    1  UNL1        0.1933
     25 N         142.4886  142.0812  162.4694 N.ar    1  UNL1       -0.2859
     26 C         142.2243  141.8337  161.0137 C.3     1  UNL1        0.1341
     27 C         138.6101  142.8446  163.8814 C.3     1  UNL1        0.0556
     28 C         139.2848  143.9543  163.1308 C.ar    1  UNL1        0.1001
     29 N         138.6052  145.1355  162.5042 N.ar    1  UNL1       -0.2085
     30 C         139.6581  145.9888  161.8611 C.ar    1  UNL1        0.2849
     31 O         140.9884  145.3348  162.0903 O.2     1  UNL1       -0.4283
     32 C         140.7577  144.0774  162.8750 C.ar    1  UNL1        0.1964
@<TRIPOS>BOND
     1    27    28    1
     2    28    29   ar
     3    29    30   ar
     4    30    31   ar
     5    31    32   ar
     6    32    21    1
     7    21    22   ar
     8    22    23   ar
     9    23    24   ar
    10    24    20    1
    11    20    19    1
    12    19    18    1
    13    18     1    1
    14     1     2    1
    15     2     3    1
    16     4     3    1
    17     4     5    1
    18     5     6    1
    19     6     8    1
    20     8     9   ar
    21     9    10   ar
    22    10    11   ar
    23    11    14    1
    24    14    15    1
    25    14    16    1
    26    14    17    1
    27    11    12   ar
    28    12    13   ar
    29     4     7    1
    30    24    25   ar
    31    25    26    1
    32    32    28   ar
    33    25    21   ar
    34     7     1    1
    35     6     4    1
    36    13     8   ar
@<TRIPOS>MOLECULE
*****
 32 36 0 0 0
SMALL
GASTEIGER

@<TRIPOS>ATOM
      1 N         142.1307  143.5304  161.9509 N.3     1  UNL1       -0.2719
      2 C         143.4224  143.6260  161.1944 C.3     1  UNL1        0.0722
      3 C         144.4911  142.9696  162.0173 C.3     1  UNL1        0.0190
      4 C         143.8598  142.4684  163.2823 C.3     1  UNL1        0.0201
      5 C         145.1154  141.8917  163.8662 C.3     1  UNL1        0.0061
      6 C         143.8236  141.7961  164.6227 C.3     1  UNL1        0.0237
      7 C         142.4010  142.8150  163.2413 C.3     1  UNL1        0.0724
      8 C         143.0569  141.3528  165.8333 C.ar    1  UNL1       -0.0225
      9 C         143.0646  142.1937  167.0754 C.ar    1  UNL1       -0.0043
     10 C         142.2979  141.7504  168.2861 C.ar    1  UNL1        0.0035
     11 C         141.5236  140.4661  168.2546 C.ar    1  UNL1        0.0714
     12 C         141.5159  139.6252  167.0125 C.ar    1  UNL1        0.0035
     13 C         142.2826  140.0685  165.8018 C.ar    1  UNL1       -0.0043
     14 C         140.7569  140.0228  169.4652 C.3     1  UNL1        0.4186
     15 F         139.9902  139.5794  170.6759 F       1  UNL1       -0.1659
     16 F         139.4800  140.4785  168.8234 F       1  UNL1       -0.1659
     17 F         142.0337  139.5671  170.1070 F       1  UNL1       -0.1659
     18 C         140.8018  144.0576  161.4967 C.3     1  UNL1        0.0843
     19 C         140.0783  145.0794  162.3228 C.3     1  UNL1        0.0824
     20 S         138.8156  144.7057  163.0412 S.3     1  UNL1       -0.0742
     21 C         138.1189  140.9813  163.8831 C.ar    1  UNL1        0.2029
     22 N         137.3717  141.1312  162.5911 N.ar    1  UNL1       -0.1250
     23 N         137.5417  142.5445  162.1184 N.ar    1  UNL1       -0.1220
     24 C         138.3940  143.2682  163.1183 C.ar    1  UNL1        0.1933
     25 N         138.7507  142.3022  164.2089 N.ar    1  UNL1       -0.2859
     26 C         139.5917  142.6039  165.4139 C.3     1  UNL1        0.1341
     27 C         139.3491  138.1261  162.8911 C.3     1  UNL1        0.0556
     28 C         138.7825  138.4179  164.2490 C.ar    1  UNL1        0.1001
     29 N         138.6818  137.4486  165.3893 N.ar    1  UNL1       -0.2085
     30 C         138.0541  138.1620  166.5500 C.ar    1  UNL1        0.2849
     31 O         137.7669  139.5721  166.1271 O.2     1  UNL1       -0.4283
     32 C         138.2170  139.7303  164.7050 C.ar    1  UNL1        0.1964
@<TRIPOS>BOND
     1    27    28    1
     2    28    29   ar
     3    29    30   ar
     4    30    31   ar
     5    31    32   ar
     6    32    21    1
     7    21    22   ar
     8    22    23   ar
     9    23    24   ar
    10    24    20    1
    11    20    19    1
    12    19    18    1
    13    18     1    1
    14     1     2    1
    15     2     3    1
    16     4     3    1
    17     4     5    1
    18     5     6    1
    19     6     8    1
    20     8     9   ar
    21     9    10   ar
    22    10    11   ar
    23    11    14    1
    24    14    15    1
    25    14    16    1
    26    14    17    1
    27    11    12   ar
    28    12    13   ar
    29     4     7    1
    30    24    25   ar
    31    25    26    1
    32    32    28   ar
    33    25    21   ar
    34     7     1    1
    35     6     4    1
    36    13     8   ar
@<TRIPOS>MOLECULE
*****
 32 36 0 0 0
SMALL
GASTEIGER

@<TRIPOS>ATOM
      1 N         144.1995  142.9072  163.5159 N.3     1  UNL1       -0.2719
      2 C         145.3137  142.1472  162.8595 C.3     1  UNL1        0.0722
      3 C         145.3472  140.7697  163.4524 C.3     1  UNL1        0.0190
      4 C         144.2538  140.6785  164.4751 C.3     1  UNL1        0.0201
      5 C         144.5279  139.2580  164.8715 C.3     1  UNL1        0.0061
      6 C         143.4137  140.0181  165.5278 C.3     1  UNL1        0.0237
      7 C         143.5444  141.9996  164.5144 C.3     1  UNL1        0.0724
      8 C         142.2854  140.0756  166.5145 C.ar    1  UNL1       -0.0225
      9 C         142.5586  140.4286  167.9466 C.ar    1  UNL1       -0.0043
     10 C         141.4303  140.4862  168.9332 C.ar    1  UNL1        0.0035
     11 C         140.0287  140.1908  168.4879 C.ar    1  UNL1        0.0714
     12 C         139.7555  139.8378  167.0558 C.ar    1  UNL1        0.0035
     13 C         140.8838  139.7802  166.0691 C.ar    1  UNL1       -0.0043
     14 C         138.9004  140.2483  169.4746 C.3     1  UNL1        0.4186
     15 F         137.7721  140.3059  170.4613 F       1  UNL1       -0.1659
     16 F         138.0840  139.3502  168.5933 F       1  UNL1       -0.1659
     17 F         139.7169  141.1465  170.3558 F       1  UNL1       -0.1659
     18 C         143.8089  144.3260  163.2248 C.3     1  UNL1        0.0843
     19 C         142.6807  144.9633  163.9804 C.3     1  UNL1        0.0824
     20 S         141.2943  144.9537  163.4076 S.3     1  UNL1       -0.0742
     21 C         139.3578  141.5982  163.1705 C.ar    1  UNL1        0.2029
     22 N         138.8182  142.1543  164.4550 N.ar    1  UNL1       -0.1250
     23 N         139.4779  143.4789  164.7001 N.ar    1  UNL1       -0.1220
     24 C         140.4253  143.7416  163.5672 C.ar    1  UNL1        0.1933
     25 N         140.3511  142.5793  162.6219 N.ar    1  UNL1       -0.2859
     26 C         141.1329  142.4251  161.3511 C.3     1  UNL1        0.1341
     27 C         141.3567  139.0840  162.5933 C.3     1  UNL1        0.0556
     28 C         139.8907  139.1351  162.2794 C.ar    1  UNL1        0.1001
     29 N         139.0862  138.0396  161.6450 N.ar    1  UNL1       -0.2085
     30 C         137.6702  138.5182  161.5182 C.ar    1  UNL1        0.2849
     31 O         137.5997  139.9095  162.0743 O.2     1  UNL1       -0.4283
     32 C         138.9720  140.2908  162.5447 C.ar    1  UNL1        0.1964
@<TRIPOS>BOND
     1    27    28    1
     2    28    29   ar
     3    29    30   ar
     4    30    31   ar
     5    31    32   ar
     6    32    21    1
     7    21    22   ar
     8    22    23   ar
     9    23    24   ar
    10    24    20    1
    11    20    19    1
    12    19    18    1
    13    18     1    1
    14     1     2    1
    15     2     3    1
    16     4     3    1
    17     4     5    1
    18     5     6    1
    19     6     8    1
    20     8     9   ar
    21     9    10   ar
    22    10    11   ar
    23    11    14    1
    24    14    15    1
    25    14    16    1
    26    14    17    1
    27    11    12   ar
    28    12    13   ar
    29     4     7    1
    30    24    25   ar
    31    25    26    1
    32    32    28   ar
    33    25    21   ar
    34     7     1    1
    35     6     4    1
    36    13     8   ar
@<TRIPOS>MOLECULE
*****
 32 36 0 0 0
SMALL
GASTEIGER

@<TRIPOS>ATOM
      1 N         137.9021  141.1799  162.4239 N.3     1  UNL1       -0.2719
      2 C         137.6122  140.0811  161.4449 C.3     1  UNL1        0.0722
      3 C         138.0755  138.7884  162.0485 C.3     1  UNL1        0.0190
      4 C         138.6517  139.0883  163.4006 C.3     1  UNL1        0.0201
      5 C         139.0101  137.6710  163.7362 C.3     1  UNL1        0.0061
      6 C         139.3000  138.7698  164.7152 C.3     1  UNL1        0.0237
      7 C         138.5445  140.5664  163.6326 C.3     1  UNL1        0.0724
      8 C         139.8417  139.2204  166.0395 C.ar    1  UNL1       -0.0225
      9 C         141.3230  139.3438  166.2411 C.ar    1  UNL1       -0.0043
     10 C         141.8646  139.7944  167.5653 C.ar    1  UNL1        0.0035
     11 C         140.9250  140.1215  168.6879 C.ar    1  UNL1        0.0714
     12 C         139.4438  139.9981  168.4862 C.ar    1  UNL1        0.0035
     13 C         138.9021  139.5475  167.1620 C.ar    1  UNL1       -0.0043
     14 C         141.4667  140.5721  170.0121 C.3     1  UNL1        0.4186
     15 F         142.0084  141.0227  171.3364 F       1  UNL1       -0.1659
     16 F         140.1480  141.2101  170.3344 F       1  UNL1       -0.1659
     17 F         142.7854  139.9340  169.6898 F       1  UNL1       -0.1659
     18 C         137.6022  142.6366  162.2286 C.3     1  UNL1        0.0843
     19 C         137.8534  143.6099  163.3420 C.3     1  UNL1        0.0824
     20 S         139.0038  144.5686  163.2549 S.3     1  UNL1       -0.0742
     21 C         142.5096  142.9916  162.7184 C.ar    1  UNL1        0.2029
     22 N         142.3131  143.7109  161.4169 N.ar    1  UNL1       -0.1250
     23 N         140.9759  144.3893  161.4594 N.ar    1  UNL1       -0.1220
     24 C         140.3460  144.0892  162.7872 C.ar    1  UNL1        0.1933
     25 N         141.2938  143.2254  163.5653 N.ar    1  UNL1       -0.2859
     26 C         141.0659  142.6894  164.9477 C.3     1  UNL1        0.1341
     27 C         142.6726  139.7339  162.8224 C.3     1  UNL1        0.0556
     28 C         143.7859  140.6834  163.1529 C.ar    1  UNL1        0.1001
     29 N         145.1695  140.3023  163.5893 N.ar    1  UNL1       -0.2085
     30 C         145.9496  141.5642  163.8112 C.ar    1  UNL1        0.2849
     31 O         145.0481  142.7251  163.5119 O.2     1  UNL1       -0.4283
     32 C         143.7109  142.1808  163.1052 C.ar    1  UNL1        0.1964
@<TRIPOS>BOND
     1    27    28    1
     2    28    29   ar
     3    29    30   ar
     4    30    31   ar
     5    31    32   ar
     6    32    21    1
     7    21    22   ar
     8    22    23   ar
     9    23    24   ar
    10    24    20    1
    11    20    19    1
    12    19    18    1
    13    18     1    1
    14     1     2    1
    15     2     3    1
    16     4     3    1
    17     4     5    1
    18     5     6    1
    19     6     8    1
    20     8     9   ar
    21     9    10   ar
    22    10    11   ar
    23    11    14    1
    24    14    15    1
    25    14    16    1
    26    14    17    1
    27    11    12   ar
    28    12    13   ar
    29     4     7    1
    30    24    25   ar
    31    25    26    1
    32    32    28   ar
    33    25    21   ar
    34     7     1    1
    35     6     4    1
    36    13     8   ar
@<TRIPOS>MOLECULE
*****
 32 36 0 0 0
SMALL
GASTEIGER

@<TRIPOS>ATOM
      1 N         138.4525  143.1730  163.8857 N.3     1  UNL1       -0.2719
      2 C         137.5852  142.5007  162.8630 C.3     1  UNL1        0.0722
      3 C         137.6009  141.0264  163.1391 C.3     1  UNL1        0.0190
      4 C         138.4777  140.7875  164.3324 C.3     1  UNL1        0.0201
      5 C         138.3023  139.2981  164.3603 C.3     1  UNL1        0.0061
      6 C         139.1695  139.9704  165.3830 C.3     1  UNL1        0.0237
      7 C         139.0040  142.1142  164.7939 C.3     1  UNL1        0.0724
      8 C         140.0696  139.8867  166.5800 C.ar    1  UNL1       -0.0225
      9 C         139.5116  140.1069  167.9548 C.ar    1  UNL1       -0.0043
     10 C         140.4117  140.0233  169.1518 C.ar    1  UNL1        0.0035
     11 C         141.8698  139.7195  168.9739 C.ar    1  UNL1        0.0714
     12 C         142.4278  139.4993  167.5991 C.ar    1  UNL1        0.0035
     13 C         141.5277  139.5829  166.4021 C.ar    1  UNL1       -0.0043
     14 C         142.7699  139.6359  170.1709 C.3     1  UNL1        0.4186
     15 F         143.6701  139.5523  171.3680 F       1  UNL1       -0.1659
     16 F         142.6435  138.1412  170.1616 F       1  UNL1       -0.1659
     17 F         142.8964  141.1305  170.1802 F       1  UNL1       -0.1659
     18 C         138.7210  144.6455  163.9832 C.3     1  UNL1        0.0843
     19 C         139.0214  145.4367  162.7448 C.3     1  UNL1        0.0824
     20 S         140.3902  145.3823  162.1335 S.3     1  UNL1       -0.0742
     21 C         142.4176  142.0784  162.3304 C.ar    1  UNL1        0.2029
     22 N         141.8305  141.9766  160.9538 N.ar    1  UNL1       -0.1250
     23 N         140.9995  143.2018  160.7125 N.ar    1  UNL1       -0.1220
     24 C         141.0731  144.0609  161.9399 C.ar    1  UNL1        0.1933
     25 N         141.9495  143.3666  162.9398 N.ar    1  UNL1       -0.2859
     26 C         142.2968  143.8718  164.3089 C.3     1  UNL1        0.1341
     27 C         141.7608  138.9082  162.7403 C.3     1  UNL1        0.0556
     28 C         143.0134  139.6120  163.1714 C.ar    1  UNL1        0.1001
     29 N         144.1839  138.9822  163.8665 N.ar    1  UNL1       -0.2085
     30 C         145.2092  140.0503  164.1077 C.ar    1  UNL1        0.2849
     31 O         144.6724  141.3400  163.5617 O.2     1  UNL1       -0.4283
     32 C         143.3153  141.0692  162.9830 C.ar    1  UNL1        0.1964
@<TRIPOS>BOND
     1    27    28    1
     2    28    29   ar
     3    29    30   ar
     4    30    31   ar
     5    31    32   ar
     6    32    21    1
     7    21    22   ar
     8    22    23   ar
     9    23    24   ar
    10    24    20    1
    11    20    19    1
    12    19    18    1
    13    18     1    1
    14     1     2    1
    15     2     3    1
    16     4     3    1
    17     4     5    1
    18     5     6    1
    19     6     8    1
    20     8     9   ar
    21     9    10   ar
    22    10    11   ar
    23    11    14    1
    24    14    15    1
    25    14    16    1
    26    14    17    1
    27    11    12   ar
    28    12    13   ar
    29     4     7    1
    30    24    25   ar
    31    25    26    1
    32    32    28   ar
    33    25    21   ar
    34     7     1    1
    35     6     4    1
    36    13     8   ar
@<TRIPOS>MOLECULE
*****
 32 36 0 0 0
SMALL
GASTEIGER

@<TRIPOS>ATOM
      1 N         139.9774  137.9625  163.6941 N.3     1  UNL1       -0.2719
      2 C         141.1583  137.2480  163.1067 C.3     1  UNL1        0.0722
      3 C         142.3647  137.5934  163.9285 C.3     1  UNL1        0.0190
      4 C         141.9294  138.5214  165.0237 C.3     1  UNL1        0.0201
      5 C         143.2861  138.6797  165.6436 C.3     1  UNL1        0.0061
      6 C         142.1052  139.3941  166.2310 C.3     1  UNL1        0.0237
      7 C         140.4539  138.7495  164.8788 C.3     1  UNL1        0.0724
      8 C         141.5248  140.3105  167.2670 C.ar    1  UNL1       -0.0225
      9 C         140.2591  139.9329  167.9779 C.ar    1  UNL1       -0.0043
     10 C         139.6787  140.8493  169.0139 C.ar    1  UNL1        0.0035
     11 C         140.3642  142.1432  169.3391 C.ar    1  UNL1        0.0714
     12 C         141.6299  142.5208  168.6283 C.ar    1  UNL1        0.0035
     13 C         142.2103  141.6045  167.5923 C.ar    1  UNL1       -0.0043
     14 C         139.7838  143.0596  170.3752 C.3     1  UNL1        0.4186
     15 F         139.2034  143.9760  171.4113 F       1  UNL1       -0.1659
     16 F         140.8517  144.0706  170.0791 F       1  UNL1       -0.1659
     17 F         138.7160  142.0486  170.6713 F       1  UNL1       -0.1659
     18 C         138.5675  137.9009  163.1859 C.3     1  UNL1        0.0843
     19 C         138.2962  137.9932  161.7135 C.3     1  UNL1        0.0824
     20 S         137.7336  139.2563  161.1321 S.3     1  UNL1       -0.0742
     21 C         139.2705  142.5161  162.5734 C.ar    1  UNL1        0.2029
     22 N         137.8183  142.7145  162.8925 N.ar    1  UNL1       -0.1250
     23 N         137.0658  141.5176  162.3914 N.ar    1  UNL1       -0.1220
     24 C         138.0529  140.5793  161.7627 C.ar    1  UNL1        0.1933
     25 N         139.4154  141.1965  161.8751 N.ar    1  UNL1       -0.2859
     26 C         140.6979  140.5989  161.3768 C.3     1  UNL1        0.1341
     27 C         139.9798  143.7067  165.5279 C.3     1  UNL1        0.0556
     28 C         140.7085  144.0171  164.2540 C.ar    1  UNL1        0.1001
     29 N         141.8911  144.9292  164.1144 N.ar    1  UNL1       -0.2085
     30 C         142.2959  144.9456  162.6701 C.ar    1  UNL1        0.2849
     31 O         141.3635  144.0437  161.9171 O.2     1  UNL1       -0.4283
     32 C         140.3824  143.4698  162.8959 C.ar    1  UNL1        0.1964
@<TRIPOS>BOND
     1    27    28    1
     2    28    29   ar
     3    29    30   ar
     4    30    31   ar
     5    31    32   ar
     6    32    21    1
     7    21    22   ar
     8    22    23   ar
     9    23    24   ar
    10    24    20    1
    11    20    19    1
    12    19    18    1
    13    18     1    1
    14     1     2    1
    15     2     3    1
    16     4     3    1
    17     4     5    1
    18     5     6    1
    19     6     8    1
    20     8     9   ar
    21     9    10   ar
    22    10    11   ar
    23    11    14    1
    24    14    15    1
    25    14    16    1
    26    14    17    1
    27    11    12   ar
    28    12    13   ar
    29     4     7    1
    30    24    25   ar
    31    25    26    1
    32    32    28   ar
    33    25    21   ar
    34     7     1    1
    35     6     4    1
    36    13     8   ar
@<TRIPOS>MOLECULE
*****
 32 36 0 0 0
SMALL
GASTEIGER

@<TRIPOS>ATOM
      1 N         142.7356  143.8313  162.4933 N.3     1  UNL1       -0.2719
      2 C         144.0105  143.6386  161.7268 C.3     1  UNL1        0.0722
      3 C         144.8533  142.6459  162.4713 C.3     1  UNL1        0.0190
      4 C         144.0994  142.2251  163.6979 C.3     1  UNL1        0.0201
      5 C         145.1456  141.2791  164.2082 C.3     1  UNL1        0.0061
      6 C         143.8707  141.4718  164.9747 C.3     1  UNL1        0.0237
      7 C         142.7905  142.9577  163.7115 C.3     1  UNL1        0.0724
      8 C         143.0026  141.1482  166.1544 C.ar    1  UNL1       -0.0225
      9 C         142.2359  139.8594  166.1902 C.ar    1  UNL1       -0.0043
     10 C         141.3678  139.5358  167.3699 C.ar    1  UNL1        0.0035
     11 C         141.2665  140.5009  168.5137 C.ar    1  UNL1        0.0714
     12 C         142.0332  141.7896  168.4779 C.ar    1  UNL1        0.0035
     13 C         142.9013  142.1133  167.2982 C.ar    1  UNL1       -0.0043
     14 C         140.3984  140.1773  169.6934 C.3     1  UNL1        0.4186
     15 F         139.5303  139.8536  170.8732 F       1  UNL1       -0.1659
     16 F         139.2565  139.8728  168.7696 F       1  UNL1       -0.1659
     17 F         141.5403  140.4818  170.6172 F       1  UNL1       -0.1659
     18 C         141.6044  144.7383  162.1091 C.3     1  UNL1        0.0843
     19 C         141.2276  144.8974  160.6660 C.3     1  UNL1        0.0824
     20 S         140.0448  144.1584  160.1137 S.3     1  UNL1       -0.0742
     21 C         138.6770  141.2245  162.2554 C.ar    1  UNL1        0.2029
     22 N         137.5645  142.2223  162.3862 N.ar    1  UNL1       -0.1250
     23 N         137.9415  143.4427  161.5999 N.ar    1  UNL1       -0.1220
     24 C         139.2869  143.1993  160.9830 C.ar    1  UNL1        0.1933
     25 N         139.7415  141.8285  161.3881 N.ar    1  UNL1       -0.2859
     26 C         141.0337  141.1760  160.9950 C.3     1  UNL1        0.1341
     27 C         138.4706  140.5737  165.4465 C.3     1  UNL1        0.0556
     28 C         138.6229  139.5630  164.3486 C.ar    1  UNL1        0.1001
     29 N         138.7071  138.0758  164.5247 N.ar    1  UNL1       -0.2085
     30 C         138.8540  137.4558  163.1666 C.ar    1  UNL1        0.2849
     31 O         138.8606  138.5599  162.1513 O.2     1  UNL1       -0.4283
     32 C         138.7178  139.8622  162.8818 C.ar    1  UNL1        0.1964
@<TRIPOS>BOND
     1    27    28    1
     2    28    29   ar
     3    29    30   ar
     4    30    31   ar
     5    31    32   ar
     6    32    21    1
     7    21    22   ar
     8    22    23   ar
     9    23    24   ar
    10    24    20    1
    11    20    19    1
    12    19    18    1
    13    18     1    1
    14     1     2    1
    15     2     3    1
    16     4     3    1
    17     4     5    1
    18     5     6    1
    19     6     8    1
    20     8     9   ar
    21     9    10   ar
    22    10    11   ar
    23    11    14    1
    24    14    15    1
    25    14    16    1
    26    14    17    1
    27    11    12   ar
    28    12    13   ar
    29     4     7    1
    30    24    25   ar
    31    25    26    1
    32    32    28   ar
    33    25    21   ar
    34     7     1    1
    35     6     4    1
    36    13     8   ar
