@<TRIPOS>MOLECULE
*****
 32 36 0 0 0
SMALL
GASTEIGER

@<TRIPOS>ATOM
      1 C         138.7164  140.3802  164.1075 C.ar    1  UNL1       -0.0175
      2 C         139.1980  139.4124  163.0676 C.ar    1  UNL1        0.0023
      3 C         139.5924  139.9074  161.7077 C.ar    1  UNL1        0.0736
      4 C         140.0739  138.9395  160.6677 C.ar    1  UNL1        0.2634
      5 O         140.1611  137.4767  160.9878 O.2     1  UNL1       -0.2669
      6 N         140.4683  139.4346  159.3078 N.ar    1  UNL1       -0.2777
      7 C         140.3811  140.8975  158.9878 C.ar    1  UNL1        0.1808
      8 N         139.8996  141.8653  160.0277 N.ar    1  UNL1       -0.2252
      9 C         139.5052  141.3703  161.3876 C.ar    1  UNL1        0.0875
     10 C         139.0236  142.3382  162.4275 C.ar    1  UNL1        0.0176
     11 C         138.9364  143.8010  162.1075 C.ar    1  UNL1        0.0015
     12 C         138.4549  144.7688  163.1473 C.ar    1  UNL1        0.0000
     13 C         138.0605  144.2738  164.5073 C.ar    1  UNL1       -0.0000
     14 C         138.1477  142.8110  164.8273 C.ar    1  UNL1       -0.0003
     15 C         138.6292  141.8432  163.7875 C.ar    1  UNL1       -0.0022
     16 C         140.9498  138.4667  158.2679 C.3     1  UNL1        0.1166
     17 C         139.9881  137.9060  157.2627 C.3     1  UNL1        0.0252
     18 C         140.4696  136.9381  156.2227 C.3     1  UNL1        0.0021
     19 C         141.9129  136.5311  156.1881 C.3     1  UNL1        0.0026
     20 C         142.8747  137.0919  157.1934 C.3     1  UNL1        0.0312
     21 C         142.3931  138.0597  158.2333 C.3     1  UNL1        0.1312
     22 O         143.3549  138.6204  159.2385 O.3     1  UNL1       -0.3825
     23 H         144.2397  138.2573  159.0770 H       1  UNL1        0.2104
     24 C         138.3221  139.8852  165.4674 C.3     1  UNL1        0.0542
     25 C         141.3093  139.9320  168.8325 C.ar    1  UNL1        0.1067
     26 C         141.7778  140.0462  167.4122 C.ar    1  UNL1        0.0252
     27 C         140.7820  140.0306  166.2904 C.ar    1  UNL1       -0.0003
     28 C         139.3178  139.9008  166.5891 C.ar    1  UNL1        0.0014
     29 C         138.8494  139.7866  168.0095 C.ar    1  UNL1        0.0954
     30 N         139.8451  139.8022  169.1312 N.ar    1  UNL1       -0.2380
     31 C         142.0856  140.8402  171.1396 C.3     1  UNL1        0.0757
     32 S         142.3051  139.9476  169.9542 S.3     1  UNL1       -0.0940
@<TRIPOS>BOND
     1    31    32    1
     2    32    25    1
     3    25    26   ar
     4    26    27   ar
     5    27    28   ar
     6    28    24    1
     7    24     1    1
     8     1     2   ar
     9     2     3   ar
    10     3     4   ar
    11     4     5    2
    12     4     6   ar
    13    16     6    1
    14    16    17    1
    15    17    18    1
    16    18    19    1
    17    19    20    1
    18    20    21    1
    19    21    22    1
    20     6     7   ar
    21     7     8   ar
    22     8     9   ar
    23     9    10   ar
    24    10    11   ar
    25    11    12   ar
    26    12    13   ar
    27    13    14   ar
    28    14    15   ar
    29    28    29   ar
    30    29    30   ar
    31    30    25   ar
    32    15     1   ar
    33     9     3   ar
    34    15    10   ar
    35    21    16    1
    36    22    23    1
@<TRIPOS>MOLECULE
*****
 32 36 0 0 0
SMALL
GASTEIGER

@<TRIPOS>ATOM
      1 C         140.1831  140.6425  164.0012 C.ar    1  UNL1       -0.0175
      2 C         139.6708  141.4922  162.8762 C.ar    1  UNL1        0.0023
      3 C         140.5785  141.8586  161.7396 C.ar    1  UNL1        0.0736
      4 C         140.0661  142.7084  160.6146 C.ar    1  UNL1        0.2634
      5 O         138.6462  143.1916  160.6263 O.2     1  UNL1       -0.2669
      6 N         140.9738  143.0748  159.4780 N.ar    1  UNL1       -0.2777
      7 C         142.3938  142.5915  159.4664 C.ar    1  UNL1        0.1808
      8 N         142.9061  141.7418  160.5913 N.ar    1  UNL1       -0.2252
      9 C         141.9984  141.3753  161.7279 C.ar    1  UNL1        0.0875
     10 C         142.5108  140.5256  162.8529 C.ar    1  UNL1        0.0176
     11 C         143.9307  140.0423  162.8412 C.ar    1  UNL1        0.0015
     12 C         144.4430  139.1926  163.9662 C.ar    1  UNL1        0.0000
     13 C         143.5354  138.8262  165.1028 C.ar    1  UNL1       -0.0000
     14 C         142.1154  139.3094  165.1144 C.ar    1  UNL1       -0.0003
     15 C         141.6031  140.1591  163.9895 C.ar    1  UNL1       -0.0022
     16 C         140.4615  143.9245  158.3531 C.3     1  UNL1        0.1166
     17 C         139.5874  143.3200  157.2946 C.3     1  UNL1        0.0252
     18 C         139.0751  144.1697  156.1695 C.3     1  UNL1        0.0021
     19 C         139.4368  145.6239  156.1031 C.3     1  UNL1        0.0026
     20 C         140.3110  146.2284  157.1618 C.3     1  UNL1        0.0312
     21 C         140.8232  145.3787  158.2867 C.3     1  UNL1        0.1312
     22 O         141.6973  145.9832  159.3452 O.3     1  UNL1       -0.3825
     23 H         141.8327  146.9245  159.1540 H       1  UNL1        0.2104
     24 C         139.2755  140.2760  165.1378 C.3     1  UNL1        0.0542
     25 C         140.2347  141.6469  169.3152 C.ar    1  UNL1        0.1067
     26 C         140.5390  142.5355  168.1458 C.ar    1  UNL1        0.0252
     27 C         140.2193  142.0786  166.7532 C.ar    1  UNL1       -0.0003
     28 C         139.5952  140.7330  166.5302 C.ar    1  UNL1        0.0014
     29 C         139.2908  139.8443  167.6997 C.ar    1  UNL1        0.0954
     30 N         139.6106  140.3012  169.0921 N.ar    1  UNL1       -0.2380
     31 C         141.9818  142.1834  171.1617 C.3     1  UNL1        0.0757
     32 S         140.5544  142.1038  170.7076 S.3     1  UNL1       -0.0940
@<TRIPOS>BOND
     1    31    32    1
     2    32    25    1
     3    25    26   ar
     4    26    27   ar
     5    27    28   ar
     6    28    24    1
     7    24     1    1
     8     1     2   ar
     9     2     3   ar
    10     3     4   ar
    11     4     5    2
    12     4     6   ar
    13    16     6    1
    14    16    17    1
    15    17    18    1
    16    18    19    1
    17    19    20    1
    18    20    21    1
    19    21    22    1
    20     6     7   ar
    21     7     8   ar
    22     8     9   ar
    23     9    10   ar
    24    10    11   ar
    25    11    12   ar
    26    12    13   ar
    27    13    14   ar
    28    14    15   ar
    29    28    29   ar
    30    29    30   ar
    31    30    25   ar
    32    15     1   ar
    33     9     3   ar
    34    15    10   ar
    35    21    16    1
    36    22    23    1
@<TRIPOS>MOLECULE
*****
 32 36 0 0 0
SMALL
GASTEIGER

@<TRIPOS>ATOM
      1 C         138.6411  141.6926  162.5041 C.ar    1  UNL1       -0.0175
      2 C         138.9451  140.4646  161.6981 C.ar    1  UNL1        0.0023
      3 C         139.7352  140.5777  160.4281 C.ar    1  UNL1        0.0736
      4 C         140.0392  139.3496  159.6221 C.ar    1  UNL1        0.2634
      5 O         139.5532  138.0086  160.0861 O.2     1  UNL1       -0.2669
      6 N         140.8293  139.4627  158.3520 N.ar    1  UNL1       -0.2777
      7 C         141.3153  140.8038  157.8880 C.ar    1  UNL1        0.1808
      8 N         141.0113  142.0318  158.6939 N.ar    1  UNL1       -0.2252
      9 C         140.2212  141.9187  159.9640 C.ar    1  UNL1        0.0875
     10 C         139.9172  143.1468  160.7700 C.ar    1  UNL1        0.0176
     11 C         140.4033  144.4878  160.3059 C.ar    1  UNL1        0.0015
     12 C         140.0993  145.7157  161.1119 C.ar    1  UNL1        0.0000
     13 C         139.3092  145.6027  162.3820 C.ar    1  UNL1       -0.0000
     14 C         138.8232  144.2616  162.8460 C.ar    1  UNL1       -0.0003
     15 C         139.1272  143.0337  162.0400 C.ar    1  UNL1       -0.0022
     16 C         141.1333  138.2348  157.5460 C.3     1  UNL1        0.1166
     17 C         142.4318  137.5104  157.7437 C.3     1  UNL1        0.0252
     18 C         142.7359  136.2824  156.9377 C.3     1  UNL1        0.0021
     19 C         141.7414  135.7788  155.9340 C.3     1  UNL1        0.0026
     20 C         140.4428  136.5032  155.7364 C.3     1  UNL1        0.0312
     21 C         140.1388  137.7311  156.5424 C.3     1  UNL1        0.1312
     22 O         138.8403  138.4555  156.3447 O.3     1  UNL1       -0.3825
     23 H         138.3173  138.0021  155.6651 H       1  UNL1        0.2104
     24 C         137.8511  141.5795  163.7741 C.3     1  UNL1        0.0542
     25 C         139.9066  140.4264  167.6076 C.ar    1  UNL1        0.1067
     26 C         138.9525  139.4726  166.9518 C.ar    1  UNL1        0.0252
     27 C         138.2673  139.8570  165.6740 C.ar    1  UNL1       -0.0003
     28 C         138.5362  141.1951  165.0519 C.ar    1  UNL1        0.0014
     29 C         139.4903  142.1490  165.7077 C.ar    1  UNL1        0.0954
     30 N         140.1754  141.7646  166.9855 N.ar    1  UNL1       -0.2380
     31 C         139.9099  140.2740  170.2011 C.3     1  UNL1        0.0757
     32 S         140.5917  140.0420  168.8853 S.3     1  UNL1       -0.0940
@<TRIPOS>BOND
     1    31    32    1
     2    32    25    1
     3    25    26   ar
     4    26    27   ar
     5    27    28   ar
     6    28    24    1
     7    24     1    1
     8     1     2   ar
     9     2     3   ar
    10     3     4   ar
    11     4     5    2
    12     4     6   ar
    13    16     6    1
    14    16    17    1
    15    17    18    1
    16    18    19    1
    17    19    20    1
    18    20    21    1
    19    21    22    1
    20     6     7   ar
    21     7     8   ar
    22     8     9   ar
    23     9    10   ar
    24    10    11   ar
    25    11    12   ar
    26    12    13   ar
    27    13    14   ar
    28    14    15   ar
    29    28    29   ar
    30    29    30   ar
    31    30    25   ar
    32    15     1   ar
    33     9     3   ar
    34    15    10   ar
    35    21    16    1
    36    22    23    1
@<TRIPOS>MOLECULE
*****
 32 36 0 0 0
SMALL
GASTEIGER

@<TRIPOS>ATOM
      1 C         143.1312  139.8530  164.5572 C.ar    1  UNL1       -0.0175
      2 C         142.6992  138.9942  163.4057 C.ar    1  UNL1        0.0023
      3 C         142.5872  139.5838  162.0310 C.ar    1  UNL1        0.0736
      4 C         142.1551  138.7250  160.8795 C.ar    1  UNL1        0.2634
      5 O         141.8351  137.2766  161.1028 O.2     1  UNL1       -0.2669
      6 N         142.0431  139.3145  159.5048 N.ar    1  UNL1       -0.2777
      7 C         142.3631  140.7629  159.2816 C.ar    1  UNL1        0.1808
      8 N         142.7951  141.6217  160.4330 N.ar    1  UNL1       -0.2252
      9 C         142.9072  141.0321  161.8077 C.ar    1  UNL1        0.0875
     10 C         143.3392  141.8910  162.9592 C.ar    1  UNL1        0.0176
     11 C         143.6592  143.3393  162.7359 C.ar    1  UNL1        0.0015
     12 C         144.0913  144.1980  163.8873 C.ar    1  UNL1        0.0000
     13 C         144.2033  143.6085  165.2620 C.ar    1  UNL1       -0.0000
     14 C         143.8833  142.1601  165.4853 C.ar    1  UNL1       -0.0003
     15 C         143.4513  141.3014  164.3339 C.ar    1  UNL1       -0.0022
     16 C         141.6111  138.4558  158.3534 C.3     1  UNL1        0.1166
     17 C         142.6202  137.6258  157.6168 C.3     1  UNL1        0.0252
     18 C         142.1882  136.7669  156.4653 C.3     1  UNL1        0.0021
     19 C         140.7470  136.7382  156.0504 C.3     1  UNL1        0.0026
     20 C         139.7378  137.5683  156.7871 C.3     1  UNL1        0.0312
     21 C         140.1698  138.4271  157.9385 C.3     1  UNL1        0.1312
     22 O         139.1607  139.2571  158.6751 O.3     1  UNL1       -0.3825
     23 H         138.2838  139.1236  158.2825 H       1  UNL1        0.2104
     24 C         143.2433  139.2634  165.9319 C.3     1  UNL1        0.0542
     25 C         140.1554  140.2382  169.0567 C.ar    1  UNL1        0.1067
     26 C         139.7762  140.2271  167.6055 C.ar    1  UNL1        0.0252
     27 C         140.8055  139.9022  166.5638 C.ar    1  UNL1       -0.0003
     28 C         142.2140  139.5883  166.9735 C.ar    1  UNL1        0.0014
     29 C         142.5931  139.5994  168.4248 C.ar    1  UNL1        0.0954
     30 N         141.5638  139.9244  169.4663 N.ar    1  UNL1       -0.2380
     31 C         137.8853  139.7282  170.2127 C.3     1  UNL1        0.0757
     32 S         139.1261  140.5632  170.0983 S.3     1  UNL1       -0.0940
@<TRIPOS>BOND
     1    31    32    1
     2    32    25    1
     3    25    26   ar
     4    26    27   ar
     5    27    28   ar
     6    28    24    1
     7    24     1    1
     8     1     2   ar
     9     2     3   ar
    10     3     4   ar
    11     4     5    2
    12     4     6   ar
    13    16     6    1
    14    16    17    1
    15    17    18    1
    16    18    19    1
    17    19    20    1
    18    20    21    1
    19    21    22    1
    20     6     7   ar
    21     7     8   ar
    22     8     9   ar
    23     9    10   ar
    24    10    11   ar
    25    11    12   ar
    26    12    13   ar
    27    13    14   ar
    28    14    15   ar
    29    28    29   ar
    30    29    30   ar
    31    30    25   ar
    32    15     1   ar
    33     9     3   ar
    34    15    10   ar
    35    21    16    1
    36    22    23    1
@<TRIPOS>MOLECULE
*****
 32 36 0 0 0
SMALL
GASTEIGER

@<TRIPOS>ATOM
      1 C         143.7058  140.0505  163.5937 C.ar    1  UNL1       -0.0175
      2 C         143.5859  139.3783  162.2582 C.ar    1  UNL1        0.0023
      3 C         143.5971  140.1982  161.0021 C.ar    1  UNL1        0.0736
      4 C         143.4772  139.5258  159.6666 C.ar    1  UNL1        0.2634
      5 O         143.3461  138.0337  159.5871 O.2     1  UNL1       -0.2669
      6 N         143.4884  140.3457  158.4105 N.ar    1  UNL1       -0.2777
      7 C         143.6195  141.8379  158.4900 C.ar    1  UNL1        0.1808
      8 N         143.7394  142.5101  159.8255 N.ar    1  UNL1       -0.2252
      9 C         143.7282  141.6903  161.0816 C.ar    1  UNL1        0.0875
     10 C         143.8481  142.3626  162.4172 C.ar    1  UNL1        0.0176
     11 C         143.9792  143.8547  162.4966 C.ar    1  UNL1        0.0015
     12 C         144.0991  144.5269  163.8322 C.ar    1  UNL1        0.0000
     13 C         144.0879  143.7071  165.0882 C.ar    1  UNL1       -0.0000
     14 C         143.9568  142.2150  165.0087 C.ar    1  UNL1       -0.0003
     15 C         143.8369  141.5427  163.6732 C.ar    1  UNL1       -0.0022
     16 C         143.3685  139.6735  157.0750 C.3     1  UNL1        0.1166
     17 C         142.0632  139.0642  156.6565 C.3     1  UNL1        0.0252
     18 C         141.9433  138.3919  155.3209 C.3     1  UNL1        0.0021
     19 C         143.1286  138.3289  154.4039 C.3     1  UNL1        0.0026
     20 C         144.4339  138.9383  154.8224 C.3     1  UNL1        0.0312
     21 C         144.5538  139.6105  156.1579 C.3     1  UNL1        0.1312
     22 O         145.8590  140.2198  156.5763 O.3     1  UNL1       -0.3825
     23 H         146.5154  140.0923  155.8736 H       1  UNL1        0.2104
     24 C         143.6947  139.2306  164.8498 C.3     1  UNL1        0.0542
     25 C         140.5512  139.9614  167.9858 C.ar    1  UNL1        0.1067
     26 C         141.9781  139.7399  168.3916 C.ar    1  UNL1        0.0252
     27 C         143.0260  139.4963  167.3462 C.ar    1  UNL1       -0.0003
     28 C         142.6469  139.4742  165.8951 C.ar    1  UNL1        0.0014
     29 C         141.2198  139.6957  165.4893 C.ar    1  UNL1        0.0954
     30 N         140.1720  139.9393  166.5346 N.ar    1  UNL1       -0.2380
     31 C         139.6725  141.3235  170.0162 C.3     1  UNL1        0.0757
     32 S         139.5034  140.2050  169.0311 S.3     1  UNL1       -0.0940
@<TRIPOS>BOND
     1    31    32    1
     2    32    25    1
     3    25    26   ar
     4    26    27   ar
     5    27    28   ar
     6    28    24    1
     7    24     1    1
     8     1     2   ar
     9     2     3   ar
    10     3     4   ar
    11     4     5    2
    12     4     6   ar
    13    16     6    1
    14    16    17    1
    15    17    18    1
    16    18    19    1
    17    19    20    1
    18    20    21    1
    19    21    22    1
    20     6     7   ar
    21     7     8   ar
    22     8     9   ar
    23     9    10   ar
    24    10    11   ar
    25    11    12   ar
    26    12    13   ar
    27    13    14   ar
    28    14    15   ar
    29    28    29   ar
    30    29    30   ar
    31    30    25   ar
    32    15     1   ar
    33     9     3   ar
    34    15    10   ar
    35    21    16    1
    36    22    23    1
@<TRIPOS>MOLECULE
*****
 32 36 0 0 0
SMALL
GASTEIGER

@<TRIPOS>ATOM
      1 C         141.9199  138.2571  157.2358 C.ar    1  UNL1       -0.0175
      2 C         141.0844  138.0889  158.4701 C.ar    1  UNL1        0.0023
      3 C         141.3448  138.9444  159.6744 C.ar    1  UNL1        0.0736
      4 C         140.5093  138.7762  160.9088 C.ar    1  UNL1        0.2634
      5 O         139.4134  137.7525  160.9388 O.2     1  UNL1       -0.2669
      6 N         140.7697  139.6317  162.1131 N.ar    1  UNL1       -0.2777
      7 C         141.8657  140.6554  162.0829 C.ar    1  UNL1        0.1808
      8 N         142.7012  140.8236  160.8486 N.ar    1  UNL1       -0.2252
      9 C         142.4407  139.9681  159.6443 C.ar    1  UNL1        0.0875
     10 C         143.2763  140.1364  158.4100 C.ar    1  UNL1        0.0176
     11 C         144.3722  141.1601  158.3799 C.ar    1  UNL1        0.0015
     12 C         145.2077  141.3283  157.1456 C.ar    1  UNL1        0.0000
     13 C         144.9473  140.4728  155.9413 C.ar    1  UNL1       -0.0000
     14 C         143.8513  139.4491  155.9713 C.ar    1  UNL1       -0.0003
     15 C         143.0159  139.2809  157.2057 C.ar    1  UNL1       -0.0022
     16 C         139.9342  139.4635  163.3474 C.3     1  UNL1        0.1166
     17 C         139.0493  140.5819  163.8122 C.3     1  UNL1        0.0252
     18 C         138.2138  140.4137  165.0466 C.3     1  UNL1        0.0021
     19 C         138.2632  139.1271  165.8161 C.3     1  UNL1        0.0026
     20 C         139.1482  138.0087  165.3513 C.3     1  UNL1        0.0312
     21 C         139.9836  138.1769  164.1169 C.3     1  UNL1        0.1312
     22 O         140.8686  137.0585  163.6522 O.3     1  UNL1       -0.3825
     23 H         140.7826  136.3053  164.2574 H       1  UNL1        0.2104
     24 C         141.6594  137.4016  156.0315 C.3     1  UNL1        0.0542
     25 C         142.7197  133.0290  156.1059 C.ar    1  UNL1        0.1067
     26 C         143.5598  134.0173  156.8591 C.ar    1  UNL1        0.0252
     27 C         143.2064  135.4749  156.8343 C.ar    1  UNL1       -0.0003
     28 C         142.0129  135.9441  156.0563 C.ar    1  UNL1        0.0014
     29 C         141.1727  134.9557  155.3031 C.ar    1  UNL1        0.0954
     30 N         141.5261  133.4982  155.3279 N.ar    1  UNL1       -0.2380
     31 C         144.5120  131.1481  156.1113 C.3     1  UNL1        0.0757
     32 S         143.0731  131.5714  156.1307 S.3     1  UNL1       -0.0940
@<TRIPOS>BOND
     1    31    32    1
     2    32    25    1
     3    25    26   ar
     4    26    27   ar
     5    27    28   ar
     6    28    24    1
     7    24     1    1
     8     1     2   ar
     9     2     3   ar
    10     3     4   ar
    11     4     5    2
    12     4     6   ar
    13    16     6    1
    14    16    17    1
    15    17    18    1
    16    18    19    1
    17    19    20    1
    18    20    21    1
    19    21    22    1
    20     6     7   ar
    21     7     8   ar
    22     8     9   ar
    23     9    10   ar
    24    10    11   ar
    25    11    12   ar
    26    12    13   ar
    27    13    14   ar
    28    14    15   ar
    29    28    29   ar
    30    29    30   ar
    31    30    25   ar
    32    15     1   ar
    33     9     3   ar
    34    15    10   ar
    35    21    16    1
    36    22    23    1
@<TRIPOS>MOLECULE
*****
 32 36 0 0 0
SMALL
GASTEIGER

@<TRIPOS>ATOM
      1 C         142.6940  141.0692  162.0248 C.ar    1  UNL1       -0.0175
      2 C         142.8159  141.4416  163.4727 C.ar    1  UNL1        0.0023
      3 C         141.8779  140.8475  164.4814 C.ar    1  UNL1        0.0736
      4 C         141.9998  141.2199  165.9294 C.ar    1  UNL1        0.2634
      5 O         143.0596  142.1863  166.3686 O.2     1  UNL1       -0.2669
      6 N         141.0619  140.6258  166.9380 N.ar    1  UNL1       -0.2777
      7 C         140.0021  139.6594  166.4987 C.ar    1  UNL1        0.1808
      8 N         139.8803  139.2871  165.0508 N.ar    1  UNL1       -0.2252
      9 C         140.8182  139.8811  164.0422 C.ar    1  UNL1        0.0875
     10 C         140.6963  139.5087  162.5942 C.ar    1  UNL1        0.0176
     11 C         139.6366  138.5424  162.1549 C.ar    1  UNL1        0.0015
     12 C         139.5148  138.1700  160.7070 C.ar    1  UNL1        0.0000
     13 C         140.4527  138.7641  159.6984 C.ar    1  UNL1       -0.0000
     14 C         141.5124  139.7305  160.1376 C.ar    1  UNL1       -0.0003
     15 C         141.6343  140.1028  161.5855 C.ar    1  UNL1       -0.0022
     16 C         141.1837  140.9982  168.3860 C.3     1  UNL1        0.1166
     17 C         140.3488  142.1109  168.9470 C.3     1  UNL1        0.0252
     18 C         140.4706  142.4833  170.3950 C.3     1  UNL1        0.0021
     19 C         141.4273  141.7429  171.2818 C.3     1  UNL1        0.0026
     20 C         142.2622  140.6301  170.7207 C.3     1  UNL1        0.0312
     21 C         142.1404  140.2578  169.2728 C.3     1  UNL1        0.1312
     22 O         142.9753  139.1451  168.7118 O.3     1  UNL1       -0.3825
     23 H         143.5349  138.7757  169.4127 H       1  UNL1        0.2104
     24 C         143.6320  141.6633  161.0162 C.3     1  UNL1        0.0542
     25 C         142.1663  144.8253  158.1696 C.ar    1  UNL1        0.1067
     26 C         142.9730  143.6697  157.6561 C.ar    1  UNL1        0.0252
     27 C         143.4615  142.6156  158.6050 C.ar    1  UNL1       -0.0003
     28 C         143.1434  142.7173  160.0673 C.ar    1  UNL1        0.0014
     29 C         142.3368  143.8730  160.5808 C.ar    1  UNL1        0.0954
     30 N         141.8482  144.9270  159.6319 N.ar    1  UNL1       -0.2380
     31 C         140.2235  146.2457  157.1908 C.3     1  UNL1        0.0757
     32 S         141.6778  145.8793  157.2207 S.3     1  UNL1       -0.0940
@<TRIPOS>BOND
     1    31    32    1
     2    32    25    1
     3    25    26   ar
     4    26    27   ar
     5    27    28   ar
     6    28    24    1
     7    24     1    1
     8     1     2   ar
     9     2     3   ar
    10     3     4   ar
    11     4     5    2
    12     4     6   ar
    13    16     6    1
    14    16    17    1
    15    17    18    1
    16    18    19    1
    17    19    20    1
    18    20    21    1
    19    21    22    1
    20     6     7   ar
    21     7     8   ar
    22     8     9   ar
    23     9    10   ar
    24    10    11   ar
    25    11    12   ar
    26    12    13   ar
    27    13    14   ar
    28    14    15   ar
    29    28    29   ar
    30    29    30   ar
    31    30    25   ar
    32    15     1   ar
    33     9     3   ar
    34    15    10   ar
    35    21    16    1
    36    22    23    1
@<TRIPOS>MOLECULE
*****
 32 36 0 0 0
SMALL
GASTEIGER

@<TRIPOS>ATOM
      1 C         141.5633  142.9830  163.8266 C.ar    1  UNL1       -0.0175
      2 C         140.7503  143.5109  162.6819 C.ar    1  UNL1        0.0023
      3 C         141.3613  143.6226  161.3166 C.ar    1  UNL1        0.0736
      4 C         140.5481  144.1505  160.1719 C.ar    1  UNL1        0.2634
      5 O         139.1241  144.5667  160.3926 O.2     1  UNL1       -0.2669
      6 N         141.1591  144.2622  158.8065 N.ar    1  UNL1       -0.2777
      7 C         142.5833  143.8459  158.5859 C.ar    1  UNL1        0.1808
      8 N         143.3963  143.3181  159.7305 N.ar    1  UNL1       -0.2252
      9 C         142.7853  143.2064  161.0958 C.ar    1  UNL1        0.0875
     10 C         143.5985  142.6785  162.2405 C.ar    1  UNL1        0.0176
     11 C         145.0225  142.2623  162.0198 C.ar    1  UNL1        0.0015
     12 C         145.8356  141.7344  163.1644 C.ar    1  UNL1        0.0000
     13 C         145.2246  141.6227  164.5298 C.ar    1  UNL1       -0.0000
     14 C         143.8005  142.0389  164.7505 C.ar    1  UNL1       -0.0003
     15 C         142.9875  142.5668  163.6059 C.ar    1  UNL1       -0.0022
     16 C         140.3461  144.7900  157.6619 C.3     1  UNL1        0.1166
     17 C         140.3992  146.2481  157.3138 C.3     1  UNL1        0.0252
     18 C         139.5861  146.7760  156.1691 C.3     1  UNL1        0.0021
     19 C         138.7199  145.8459  155.3726 C.3     1  UNL1        0.0026
     20 C         138.6668  144.3877  155.7207 C.3     1  UNL1        0.0312
     21 C         139.4799  143.8599  156.8654 C.3     1  UNL1        0.1312
     22 O         139.4267  142.4018  157.2135 O.3     1  UNL1       -0.3825
     23 H         138.8242  141.9459  156.6052 H       1  UNL1        0.2104
     24 C         140.9523  142.8713  165.1919 C.3     1  UNL1        0.0542
     25 C         138.5571  139.2245  166.2937 C.ar    1  UNL1        0.1067
     26 C         138.5643  139.7172  164.8770 C.ar    1  UNL1        0.0252
     27 C         139.3627  140.9328  164.5097 C.ar    1  UNL1       -0.0003
     28 C         140.1539  141.6558  165.5592 C.ar    1  UNL1        0.0014
     29 C         140.1467  141.1630  166.9760 C.ar    1  UNL1        0.0954
     30 N         139.3483  139.9474  167.3432 N.ar    1  UNL1       -0.2380
     31 C         136.9420  138.0000  167.9191 C.3     1  UNL1        0.0757
     32 S         137.7588  138.0090  166.6610 S.3     1  UNL1       -0.0940
@<TRIPOS>BOND
     1    31    32    1
     2    32    25    1
     3    25    26   ar
     4    26    27   ar
     5    27    28   ar
     6    28    24    1
     7    24     1    1
     8     1     2   ar
     9     2     3   ar
    10     3     4   ar
    11     4     5    2
    12     4     6   ar
    13    16     6    1
    14    16    17    1
    15    17    18    1
    16    18    19    1
    17    19    20    1
    18    20    21    1
    19    21    22    1
    20     6     7   ar
    21     7     8   ar
    22     8     9   ar
    23     9    10   ar
    24    10    11   ar
    25    11    12   ar
    26    12    13   ar
    27    13    14   ar
    28    14    15   ar
    29    28    29   ar
    30    29    30   ar
    31    30    25   ar
    32    15     1   ar
    33     9     3   ar
    34    15    10   ar
    35    21    16    1
    36    22    23    1
@<TRIPOS>MOLECULE
*****
 32 36 0 0 0
SMALL
GASTEIGER

@<TRIPOS>ATOM
      1 C         139.8836  140.9496  162.0357 C.ar    1  UNL1       -0.0175
      2 C         139.9075  141.4213  163.4593 C.ar    1  UNL1        0.0023
      3 C         140.8839  140.8264  164.4303 C.ar    1  UNL1        0.0736
      4 C         140.9078  141.2982  165.8540 C.ar    1  UNL1        0.2634
      5 O         139.9554  142.3649  166.3067 O.2     1  UNL1       -0.2669
      6 N         141.8843  140.7033  166.8249 N.ar    1  UNL1       -0.2777
      7 C         142.8368  139.6366  166.3721 C.ar    1  UNL1        0.1808
      8 N         142.8128  139.1648  164.9484 N.ar    1  UNL1       -0.2252
      9 C         141.8364  139.7598  163.9775 C.ar    1  UNL1        0.0875
     10 C         141.8125  139.2880  162.5538 C.ar    1  UNL1        0.0176
     11 C         142.7650  138.2213  162.1010 C.ar    1  UNL1        0.0015
     12 C         142.7410  137.7496  160.6774 C.ar    1  UNL1        0.0000
     13 C         141.7646  138.3445  159.7065 C.ar    1  UNL1       -0.0000
     14 C         140.8121  139.4112  160.1592 C.ar    1  UNL1       -0.0003
     15 C         140.8361  139.8829  161.5829 C.ar    1  UNL1       -0.0022
     16 C         141.9082  141.1750  168.2486 C.3     1  UNL1        0.1166
     17 C         142.9514  142.1554  168.6963 C.3     1  UNL1        0.0252
     18 C         142.9754  142.6272  170.1201 C.3     1  UNL1        0.0021
     19 C         141.9561  142.1185  171.0959 C.3     1  UNL1        0.0026
     20 C         140.9129  141.1381  170.6481 C.3     1  UNL1        0.0312
     21 C         140.8889  140.6664  169.2245 C.3     1  UNL1        0.1312
     22 O         139.8457  139.6860  168.7767 O.3     1  UNL1       -0.3825
     23 H         139.2705  139.4617  169.5248 H       1  UNL1        0.2104
     24 C         138.9072  141.5445  161.0648 C.3     1  UNL1        0.0542
     25 C         140.2094  144.8524  158.3058 C.ar    1  UNL1        0.1067
     26 C         140.5877  144.8934  159.7567 C.ar    1  UNL1        0.0252
     27 C         140.1536  143.7908  160.6764 C.ar    1  UNL1       -0.0003
     28 C         139.3413  142.6471  160.1451 C.ar    1  UNL1        0.0014
     29 C         138.9630  142.6062  158.6941 C.ar    1  UNL1        0.0954
     30 N         139.3971  143.7088  157.7745 N.ar    1  UNL1       -0.2380
     31 C         139.6453  146.6125  156.4800 C.3     1  UNL1        0.0757
     32 S         140.6435  145.9550  157.3861 S.3     1  UNL1       -0.0940
@<TRIPOS>BOND
     1    31    32    1
     2    32    25    1
     3    25    26   ar
     4    26    27   ar
     5    27    28   ar
     6    28    24    1
     7    24     1    1
     8     1     2   ar
     9     2     3   ar
    10     3     4   ar
    11     4     5    2
    12     4     6   ar
    13    16     6    1
    14    16    17    1
    15    17    18    1
    16    18    19    1
    17    19    20    1
    18    20    21    1
    19    21    22    1
    20     6     7   ar
    21     7     8   ar
    22     8     9   ar
    23     9    10   ar
    24    10    11   ar
    25    11    12   ar
    26    12    13   ar
    27    13    14   ar
    28    14    15   ar
    29    28    29   ar
    30    29    30   ar
    31    30    25   ar
    32    15     1   ar
    33     9     3   ar
    34    15    10   ar
    35    21    16    1
    36    22    23    1
