@<TRIPOS>MOLECULE
*****
 27 29 0 0 0
SMALL
GASTEIGER

@<TRIPOS>ATOM
      1 N         142.1109  143.8469  162.0413 N.3     1  UNL1       -0.2682
      2 C         142.9115  144.5312  163.1094 C.3     1  UNL1        0.0897
      3 C         143.2445  143.8045  164.3787 C.3     1  UNL1        0.0899
      4 N         142.7768  142.3935  164.5799 N.3     1  UNL1       -0.2665
      5 C         141.9762  141.7092  163.5118 C.3     1  UNL1        0.0899
      6 C         141.6432  142.4359  162.2425 C.3     1  UNL1        0.0897
      7 C         141.7779  144.5736  160.7721 C.3     1  UNL1        0.1056
      8 O         139.8463  145.5330  159.3236 O.3     1  UNL1       -0.3793
      9 C         140.4948  145.3427  160.6627 C.3     1  UNL1        0.1700
     10 H         139.0314  146.0485  159.4293 H       1  UNL1        0.2106
     11 C         139.8601  145.9215  161.8925 C.3     1  UNL1        0.2358
     12 O         138.5271  145.4150  162.3577 O.3     1  UNL1       -0.4728
     13 C         138.4333  144.1033  163.0793 C.ar    1  UNL1        0.1387
     14 C         139.0241  143.9577  164.4504 C.ar    1  UNL1        0.0378
     15 C         138.9303  142.6460  165.1719 C.ar    1  UNL1        0.0145
     16 C         138.2458  141.4800  164.5225 C.ar    1  UNL1        0.0579
     17 CL        138.1520  140.1683  165.2441 Cl      1  UNL1       -0.0822
     18 C         137.6550  141.6256  163.1514 C.ar    1  UNL1        0.0145
     19 C         137.7488  142.9373  162.4299 C.ar    1  UNL1        0.0378
     20 C         143.1097  141.6668  165.8491 C.3     1  UNL1        0.0992
     21 C         142.0401  141.4098  166.8690 C.ar    1  UNL1       -0.0061
     22 C         141.6059  142.5083  167.7935 C.ar    1  UNL1       -0.0021
     23 C         140.5364  142.2514  168.8133 C.ar    1  UNL1        0.0111
     24 C         139.9010  140.8960  168.9086 C.ar    1  UNL1        0.0577
     25 CL        138.8314  140.6391  169.9283 Cl      1  UNL1       -0.0822
     26 C         140.3351  139.7975  167.9840 C.ar    1  UNL1        0.0111
     27 C         141.4048  140.0544  166.9642 C.ar    1  UNL1       -0.0021
@<TRIPOS>BOND
     1     9     8    1
     2     9    11    1
     3    11    12    1
     4    12    13    1
     5    13    14   ar
     6    14    15   ar
     7    15    16   ar
     8    16    17    1
     9    16    18   ar
    10    18    19   ar
    11     9     7    1
    12     7     1    1
    13     1     2    1
    14     2     3    1
    15     3     4    1
    16     4    20    1
    17    20    21    1
    18    21    22   ar
    19    22    23   ar
    20    23    24   ar
    21    24    25    1
    22    24    26   ar
    23    26    27   ar
    24     4     5    1
    25     5     6    1
    26    19    13   ar
    27     6     1    1
    28    27    21   ar
    29     8    10    1
@<TRIPOS>MOLECULE
*****
 27 29 0 0 0
SMALL
GASTEIGER

@<TRIPOS>ATOM
      1 N         139.2075  138.2509  162.7883 N.3     1  UNL1       -0.2682
      2 C         140.5678  137.8198  162.3260 C.3     1  UNL1        0.0897
      3 C         141.7397  137.9084  163.2580 C.3     1  UNL1        0.0899
      4 N         141.5513  138.4282  164.6524 N.3     1  UNL1       -0.2665
      5 C         140.1911  138.8593  165.1148 C.3     1  UNL1        0.0899
      6 C         139.0191  138.7707  164.1827 C.3     1  UNL1        0.0897
      7 C         138.0356  138.1623  161.8562 C.3     1  UNL1        0.1056
      8 O         136.3643  139.3676  160.2738 O.3     1  UNL1       -0.3793
      9 C         137.6914  139.3237  160.9716 C.3     1  UNL1        0.1700
     10 H         136.3031  140.1793  159.7462 H       1  UNL1        0.2106
     11 C         138.6743  140.4414  160.7848 C.3     1  UNL1        0.2358
     12 O         138.1998  141.8643  160.7790 O.3     1  UNL1       -0.4728
     13 C         138.2609  142.6805  162.0361 C.ar    1  UNL1        0.1387
     14 C         137.5674  142.2004  163.2765 C.ar    1  UNL1        0.0378
     15 C         137.6285  143.0165  164.5335 C.ar    1  UNL1        0.0145
     16 C         138.3831  144.3128  164.5501 C.ar    1  UNL1        0.0579
     17 CL        138.4442  145.1289  165.8072 Cl      1  UNL1       -0.0822
     18 C         139.0766  144.7929  163.3098 C.ar    1  UNL1        0.0145
     19 C         139.0155  143.9767  162.0528 C.ar    1  UNL1        0.0378
     20 C         142.7232  138.5168  165.5845 C.3     1  UNL1        0.0992
     21 C         142.7736  139.5956  166.6256 C.ar    1  UNL1       -0.0061
     22 C         142.6508  139.2423  168.0782 C.ar    1  UNL1       -0.0021
     23 C         142.7012  140.3210  169.1192 C.ar    1  UNL1        0.0111
     24 C         142.8744  141.7531  168.7077 C.ar    1  UNL1        0.0577
     25 CL        142.9248  142.8318  169.7488 Cl      1  UNL1       -0.0822
     26 C         142.9972  142.1064  167.2551 C.ar    1  UNL1        0.0111
     27 C         142.9468  141.0276  166.2140 C.ar    1  UNL1       -0.0021
@<TRIPOS>BOND
     1     9     8    1
     2     9    11    1
     3    11    12    1
     4    12    13    1
     5    13    14   ar
     6    14    15   ar
     7    15    16   ar
     8    16    17    1
     9    16    18   ar
    10    18    19   ar
    11     9     7    1
    12     7     1    1
    13     1     2    1
    14     2     3    1
    15     3     4    1
    16     4    20    1
    17    20    21    1
    18    21    22   ar
    19    22    23   ar
    20    23    24   ar
    21    24    25    1
    22    24    26   ar
    23    26    27   ar
    24     4     5    1
    25     5     6    1
    26    19    13   ar
    27     6     1    1
    28    27    21   ar
    29     8    10    1
@<TRIPOS>MOLECULE
*****
 27 29 0 0 0
SMALL
GASTEIGER

@<TRIPOS>ATOM
      1 N         138.6152  139.7722  159.7959 N.3     1  UNL1       -0.2682
      2 C         140.0411  139.4084  160.0872 C.3     1  UNL1        0.0897
      3 C         140.3862  138.6826  161.3537 C.3     1  UNL1        0.0899
      4 N         139.3055  138.3206  162.3289 N.3     1  UNL1       -0.2665
      5 C         137.8798  138.6843  162.0377 C.3     1  UNL1        0.0899
      6 C         137.5346  139.4102  160.7712 C.3     1  UNL1        0.0897
      7 C         138.2701  140.4980  158.5294 C.3     1  UNL1        0.1056
      8 O         137.6382  142.7096  157.3213 O.3     1  UNL1       -0.3793
      9 C         138.1804  141.9953  158.5237 C.3     1  UNL1        0.1700
     10 H         137.6489  143.6662  157.4814 H       1  UNL1        0.2106
     11 C         138.6328  142.7783  159.7205 C.3     1  UNL1        0.2358
     12 O         137.7118  142.9591  160.8905 O.3     1  UNL1       -0.4728
     13 C         138.2710  143.0376  162.2802 C.ar    1  UNL1        0.1387
     14 C         139.3175  142.0588  162.7239 C.ar    1  UNL1        0.0378
     15 C         139.8767  142.1374  164.1135 C.ar    1  UNL1        0.0145
     16 C         139.3894  143.1946  165.0594 C.ar    1  UNL1        0.0579
     17 CL        139.9486  143.2731  166.4491 Cl      1  UNL1       -0.0822
     18 C         138.3429  144.1734  164.6157 C.ar    1  UNL1        0.0145
     19 C         137.7837  144.0948  163.2261 C.ar    1  UNL1        0.0378
     20 C         139.6506  137.5948  163.5954 C.3     1  UNL1        0.0992
     21 C         139.6371  138.3248  164.9058 C.ar    1  UNL1       -0.0061
     22 C         140.8946  138.9559  165.4258 C.ar    1  UNL1       -0.0021
     23 C         140.8811  139.6859  166.7360 C.ar    1  UNL1        0.0111
     24 C         139.6100  139.7848  167.5264 C.ar    1  UNL1        0.0577
     25 CL        139.5965  140.5148  168.8367 Cl      1  UNL1       -0.0822
     26 C         138.3525  139.1537  167.0065 C.ar    1  UNL1        0.0111
     27 C         138.3660  138.4237  165.6961 C.ar    1  UNL1       -0.0021
@<TRIPOS>BOND
     1     9     8    1
     2     9    11    1
     3    11    12    1
     4    12    13    1
     5    13    14   ar
     6    14    15   ar
     7    15    16   ar
     8    16    17    1
     9    16    18   ar
    10    18    19   ar
    11     9     7    1
    12     7     1    1
    13     1     2    1
    14     2     3    1
    15     3     4    1
    16     4    20    1
    17    20    21    1
    18    21    22   ar
    19    22    23   ar
    20    23    24   ar
    21    24    25    1
    22    24    26   ar
    23    26    27   ar
    24     4     5    1
    25     5     6    1
    26    19    13   ar
    27     6     1    1
    28    27    21   ar
    29     8    10    1
@<TRIPOS>MOLECULE
*****
 27 29 0 0 0
SMALL
GASTEIGER

@<TRIPOS>ATOM
      1 N         138.9182  141.7165  162.2016 N.3     1  UNL1       -0.2682
      2 C         140.3656  141.6460  162.5891 C.3     1  UNL1        0.0897
      3 C         140.7932  142.0499  163.9689 C.3     1  UNL1        0.0899
      4 N         139.7735  142.5243  164.9614 N.3     1  UNL1       -0.2665
      5 C         138.3261  142.5947  164.5740 C.3     1  UNL1        0.0899
      6 C         137.8984  142.1908  163.1941 C.3     1  UNL1        0.0897
      7 C         138.4906  141.3126  160.8218 C.3     1  UNL1        0.1056
      8 O         138.9986  139.2810  159.2841 O.3     1  UNL1       -0.3793
      9 C         138.3141  139.8614  160.4860 C.3     1  UNL1        0.1700
     10 H         138.7810  138.3385  159.2117 H       1  UNL1        0.2106
     11 C         137.4531  138.9904  161.3522 C.3     1  UNL1        0.2358
     12 O         138.0451  137.7941  162.0366 O.3     1  UNL1       -0.4728
     13 C         139.2005  137.9640  162.9780 C.ar    1  UNL1        0.1387
     14 C         140.5925  137.6389  162.5232 C.ar    1  UNL1        0.0378
     15 C         141.7479  137.8088  163.4646 C.ar    1  UNL1        0.0145
     16 C         141.5113  138.3037  164.8607 C.ar    1  UNL1        0.0579
     17 CL        142.6668  138.4736  165.8020 Cl      1  UNL1       -0.0822
     18 C         140.1194  138.6288  165.3154 C.ar    1  UNL1        0.0145
     19 C         138.9640  138.4589  164.3741 C.ar    1  UNL1        0.0378
     20 C         140.2011  142.9281  166.3412 C.3     1  UNL1        0.0992
     21 C         140.7813  141.9079  167.2754 C.ar    1  UNL1       -0.0061
     22 C         142.2610  141.8687  167.5178 C.ar    1  UNL1       -0.0021
     23 C         142.8412  140.8486  168.4519 C.ar    1  UNL1        0.0111
     24 C         141.9417  139.8675  169.1437 C.ar    1  UNL1        0.0577
     25 CL        142.5219  138.8474  170.0778 Cl      1  UNL1       -0.0822
     26 C         140.4619  139.9067  168.9012 C.ar    1  UNL1        0.0111
     27 C         139.8817  140.9269  167.9670 C.ar    1  UNL1       -0.0021
@<TRIPOS>BOND
     1     9     8    1
     2     9    11    1
     3    11    12    1
     4    12    13    1
     5    13    14   ar
     6    14    15   ar
     7    15    16   ar
     8    16    17    1
     9    16    18   ar
    10    18    19   ar
    11     9     7    1
    12     7     1    1
    13     1     2    1
    14     2     3    1
    15     3     4    1
    16     4    20    1
    17    20    21    1
    18    21    22   ar
    19    22    23   ar
    20    23    24   ar
    21    24    25    1
    22    24    26   ar
    23    26    27   ar
    24     4     5    1
    25     5     6    1
    26    19    13   ar
    27     6     1    1
    28    27    21   ar
    29     8    10    1
@<TRIPOS>MOLECULE
*****
 27 29 0 0 0
SMALL
GASTEIGER

@<TRIPOS>ATOM
      1 N         140.2395  139.1832  160.0229 N.3     1  UNL1       -0.2682
      2 C         140.4568  140.5899  160.4962 C.3     1  UNL1        0.0897
      3 C         139.7040  141.1054  161.6867 C.3     1  UNL1        0.0899
      4 N         138.7339  140.2142  162.4041 N.3     1  UNL1       -0.2665
      5 C         138.5165  138.8076  161.9309 C.3     1  UNL1        0.0899
      6 C         139.2693  138.2920  160.7403 C.3     1  UNL1        0.0897
      7 C         140.9923  138.6677  158.8323 C.3     1  UNL1        0.1056
      8 O         143.2242  137.8284  157.8009 O.3     1  UNL1       -0.3793
      9 C         142.3715  138.1034  159.0039 C.3     1  UNL1        0.1700
     10 H         144.0788  137.4687  158.0858 H       1  UNL1        0.2106
     11 C         142.8979  137.8142  160.3784 C.3     1  UNL1        0.2358
     12 O         143.5130  138.9136  161.1926 O.3     1  UNL1       -0.4728
     13 C         143.3604  138.9172  162.6849 C.ar    1  UNL1        0.1387
     14 C         142.0510  138.5302  163.3058 C.ar    1  UNL1        0.0378
     15 C         141.8984  138.5337  164.7980 C.ar    1  UNL1        0.0145
     16 C         143.0553  138.9243  165.6692 C.ar    1  UNL1        0.0579
     17 CL        142.9027  138.9278  167.1615 Cl      1  UNL1       -0.0822
     18 C         144.3647  139.3113  165.0483 C.ar    1  UNL1        0.0145
     19 C         144.5173  139.3077  163.5561 C.ar    1  UNL1        0.0378
     20 C         137.9810  140.7297  163.5947 C.3     1  UNL1        0.0992
     21 C         138.5348  140.5332  164.9749 C.ar    1  UNL1       -0.0061
     22 C         138.0719  139.3771  165.8110 C.ar    1  UNL1       -0.0021
     23 C         138.6255  139.1805  167.1911 C.ar    1  UNL1        0.0111
     24 C         139.6422  140.1400  167.7352 C.ar    1  UNL1        0.0577
     25 CL        140.1958  139.9434  169.1153 Cl      1  UNL1       -0.0822
     26 C         140.1050  141.2961  166.8990 C.ar    1  UNL1        0.0111
     27 C         139.5513  141.4927  165.5188 C.ar    1  UNL1       -0.0021
@<TRIPOS>BOND
     1     9     8    1
     2     9    11    1
     3    11    12    1
     4    12    13    1
     5    13    14   ar
     6    14    15   ar
     7    15    16   ar
     8    16    17    1
     9    16    18   ar
    10    18    19   ar
    11     9     7    1
    12     7     1    1
    13     1     2    1
    14     2     3    1
    15     3     4    1
    16     4    20    1
    17    20    21    1
    18    21    22   ar
    19    22    23   ar
    20    23    24   ar
    21    24    25    1
    22    24    26   ar
    23    26    27   ar
    24     4     5    1
    25     5     6    1
    26    19    13   ar
    27     6     1    1
    28    27    21   ar
    29     8    10    1
@<TRIPOS>MOLECULE
*****
 27 29 0 0 0
SMALL
GASTEIGER

@<TRIPOS>ATOM
      1 N         142.2353  143.2892  161.2674 N.3     1  UNL1       -0.2682
      2 C         141.3331  142.1739  161.7058 C.3     1  UNL1        0.0897
      3 C         141.7999  141.1950  162.7421 C.3     1  UNL1        0.0899
      4 N         143.1688  141.3313  163.3399 N.3     1  UNL1       -0.2665
      5 C         144.0710  142.4466  162.9015 C.3     1  UNL1        0.0899
      6 C         143.6043  143.4256  161.8652 C.3     1  UNL1        0.0897
      7 C         141.7686  144.2681  160.2311 C.3     1  UNL1        0.1056
      8 O         139.3371  143.9924  159.3585 O.3     1  UNL1       -0.3793
      9 C         140.3368  144.7146  160.2123 C.3     1  UNL1        0.1700
     10 H         138.4654  144.4052  159.4617 H       1  UNL1        0.2106
     11 C         139.9045  145.8834  161.0473 C.3     1  UNL1        0.2358
     12 O         138.8663  145.6998  162.1142 O.3     1  UNL1       -0.4728
     13 C         139.0441  144.6381  163.1590 C.ar    1  UNL1        0.1387
     14 C         138.0593  143.5111  163.2582 C.ar    1  UNL1        0.0378
     15 C         138.2372  142.4496  164.3029 C.ar    1  UNL1        0.0145
     16 C         139.3998  142.5151  165.2484 C.ar    1  UNL1        0.0579
     17 CL        139.5777  141.4534  166.2931 Cl      1  UNL1       -0.0822
     18 C         140.3847  143.6421  165.1491 C.ar    1  UNL1        0.0145
     19 C         140.2068  144.7036  164.1044 C.ar    1  UNL1        0.0378
     20 C         143.6355  140.3524  164.3762 C.3     1  UNL1        0.0992
     21 C         143.2608  140.5480  165.8154 C.ar    1  UNL1       -0.0061
     22 C         143.2682  141.9243  166.4120 C.ar    1  UNL1       -0.0021
     23 C         142.8935  142.1199  167.8512 C.ar    1  UNL1        0.0111
     24 C         142.5113  140.9393  168.6938 C.ar    1  UNL1        0.0577
     25 CL        142.1366  141.1349  170.1330 Cl      1  UNL1       -0.0822
     26 C         142.5038  139.5630  168.0973 C.ar    1  UNL1        0.0111
     27 C         142.8786  139.3674  166.6580 C.ar    1  UNL1       -0.0021
@<TRIPOS>BOND
     1     9     8    1
     2     9    11    1
     3    11    12    1
     4    12    13    1
     5    13    14   ar
     6    14    15   ar
     7    15    16   ar
     8    16    17    1
     9    16    18   ar
    10    18    19   ar
    11     9     7    1
    12     7     1    1
    13     1     2    1
    14     2     3    1
    15     3     4    1
    16     4    20    1
    17    20    21    1
    18    21    22   ar
    19    22    23   ar
    20    23    24   ar
    21    24    25    1
    22    24    26   ar
    23    26    27   ar
    24     4     5    1
    25     5     6    1
    26    19    13   ar
    27     6     1    1
    28    27    21   ar
    29     8    10    1
@<TRIPOS>MOLECULE
*****
 27 29 0 0 0
SMALL
GASTEIGER

@<TRIPOS>ATOM
      1 N         139.1971  143.2962  163.0967 N.3     1  UNL1       -0.2682
      2 C         139.5537  143.5589  164.5298 C.3     1  UNL1        0.0897
      3 C         139.5117  142.4419  165.5300 C.3     1  UNL1        0.0899
      4 N         139.1132  141.0621  165.0971 N.3     1  UNL1       -0.2665
      5 C         138.7567  140.7993  163.6640 C.3     1  UNL1        0.0899
      6 C         138.7987  141.9164  162.6637 C.3     1  UNL1        0.0897
      7 C         139.2391  144.4132  162.0965 C.3     1  UNL1        0.1056
      8 O         140.4755  146.6774  162.4045 O.3     1  UNL1       -0.3793
      9 C         140.4782  145.2465  161.9544 C.3     1  UNL1        0.1700
     10 H         141.3483  147.0687  162.2430 H       1  UNL1        0.2106
     11 C         141.7201  144.6489  161.3622 C.3     1  UNL1        0.2358
     12 O         143.0031  144.6626  162.1391 O.3     1  UNL1       -0.4728
     13 C         143.5377  143.3902  162.7269 C.ar    1  UNL1        0.1387
     14 C         143.1519  142.9872  164.1192 C.ar    1  UNL1        0.0378
     15 C         143.6864  141.7149  164.7070 C.ar    1  UNL1        0.0145
     16 C         144.6067  140.8456  163.9023 C.ar    1  UNL1        0.0579
     17 CL        145.1412  139.5732  164.4901 Cl      1  UNL1       -0.0822
     18 C         144.9925  141.2486  162.5099 C.ar    1  UNL1        0.0145
     19 C         144.4579  142.5209  161.9222 C.ar    1  UNL1        0.0378
     20 C         139.0713  139.9450  166.0973 C.3     1  UNL1        0.0992
     21 C         140.0584  139.9117  167.2263 C.ar    1  UNL1       -0.0061
     22 C         139.5908  140.1109  168.6375 C.ar    1  UNL1       -0.0021
     23 C         140.5778  140.0776  169.7665 C.ar    1  UNL1        0.0111
     24 C         142.0326  139.8449  169.4842 C.ar    1  UNL1        0.0577
     25 CL        143.0197  139.8116  170.6131 Cl      1  UNL1       -0.0822
     26 C         142.5002  139.6457  168.0729 C.ar    1  UNL1        0.0111
     27 C         141.5131  139.6790  166.9440 C.ar    1  UNL1       -0.0021
@<TRIPOS>BOND
     1     9     8    1
     2     9    11    1
     3    11    12    1
     4    12    13    1
     5    13    14   ar
     6    14    15   ar
     7    15    16   ar
     8    16    17    1
     9    16    18   ar
    10    18    19   ar
    11     9     7    1
    12     7     1    1
    13     1     2    1
    14     2     3    1
    15     3     4    1
    16     4    20    1
    17    20    21    1
    18    21    22   ar
    19    22    23   ar
    20    23    24   ar
    21    24    25    1
    22    24    26   ar
    23    26    27   ar
    24     4     5    1
    25     5     6    1
    26    19    13   ar
    27     6     1    1
    28    27    21   ar
    29     8    10    1
@<TRIPOS>MOLECULE
*****
 27 29 0 0 0
SMALL
GASTEIGER

@<TRIPOS>ATOM
      1 N         139.0790  142.3377  160.9674 N.3     1  UNL1       -0.2682
      2 C         138.2606  143.1752  161.9050 C.3     1  UNL1        0.0897
      3 C         138.8331  143.6005  163.2246 C.3     1  UNL1        0.0899
      4 N         140.2238  143.1883  163.6067 N.3     1  UNL1       -0.2665
      5 C         141.0421  142.3509  162.6691 C.3     1  UNL1        0.0899
      6 C         140.4697  141.9255  161.3494 C.3     1  UNL1        0.0897
      7 C         138.5065  141.9124  159.6478 C.3     1  UNL1        0.1056
      8 O         138.0631  139.8911  158.0769 O.3     1  UNL1       -0.3793
      9 C         138.0512  140.4971  159.4490 C.3     1  UNL1        0.1700
     10 H         137.7410  138.9774  158.1241 H       1  UNL1        0.2106
     11 C         137.5839  139.6877  160.6223 C.3     1  UNL1        0.2358
     12 O         138.5693  138.8882  161.4221 O.3     1  UNL1       -0.4728
     13 C         138.5204  138.9202  162.9210 C.ar    1  UNL1        0.1387
     14 C         138.8948  137.7006  163.7098 C.ar    1  UNL1        0.0378
     15 C         138.8459  137.7327  165.2086 C.ar    1  UNL1        0.0145
     16 C         138.4226  138.9844  165.9186 C.ar    1  UNL1        0.0579
     17 CL        138.3737  139.0164  167.4175 Cl      1  UNL1       -0.0822
     18 C         138.0482  140.2040  165.1298 C.ar    1  UNL1        0.0145
     19 C         138.0972  140.1719  163.6310 C.ar    1  UNL1        0.0378
     20 C         140.7962  143.6136  164.9263 C.3     1  UNL1        0.0992
     21 C         140.9526  142.6136  166.0333 C.ar    1  UNL1       -0.0061
     22 C         141.6866  141.3291  165.7855 C.ar    1  UNL1       -0.0021
     23 C         141.8430  140.3291  166.8924 C.ar    1  UNL1        0.0111
     24 C         141.2653  140.6134  168.2473 C.ar    1  UNL1        0.0577
     25 CL        141.4217  139.6134  169.3542 Cl      1  UNL1       -0.0822
     26 C         140.5313  141.8979  168.4951 C.ar    1  UNL1        0.0111
     27 C         140.3750  142.8980  167.3881 C.ar    1  UNL1       -0.0021
@<TRIPOS>BOND
     1     9     8    1
     2     9    11    1
     3    11    12    1
     4    12    13    1
     5    13    14   ar
     6    14    15   ar
     7    15    16   ar
     8    16    17    1
     9    16    18   ar
    10    18    19   ar
    11     9     7    1
    12     7     1    1
    13     1     2    1
    14     2     3    1
    15     3     4    1
    16     4    20    1
    17    20    21    1
    18    21    22   ar
    19    22    23   ar
    20    23    24   ar
    21    24    25    1
    22    24    26   ar
    23    26    27   ar
    24     4     5    1
    25     5     6    1
    26    19    13   ar
    27     6     1    1
    28    27    21   ar
    29     8    10    1
@<TRIPOS>MOLECULE
*****
 27 29 0 0 0
SMALL
GASTEIGER

@<TRIPOS>ATOM
      1 N         140.2910  138.5092  162.0011 N.3     1  UNL1       -0.2682
      2 C         139.9150  137.5882  163.1238 C.3     1  UNL1        0.0897
      3 C         140.5391  137.7610  164.4767 C.3     1  UNL1        0.0899
      4 N         141.5392  138.8549  164.7071 N.3     1  UNL1       -0.2665
      5 C         141.9153  139.7760  163.5845 C.3     1  UNL1        0.0899
      6 C         141.2912  139.6031  162.2315 C.3     1  UNL1        0.0897
      7 C         139.6669  138.3364  160.6481 C.3     1  UNL1        0.1056
      8 O         139.5917  140.0959  158.7381 O.3     1  UNL1       -0.3793
      9 C         138.9955  139.4982  159.9780 C.3     1  UNL1        0.1700
     10 H         139.0376  140.8323  158.4355 H       1  UNL1        0.2106
     11 C         137.7277  140.0625  160.5477 C.3     1  UNL1        0.2358
     12 O         137.4844  140.0159  162.0271 O.3     1  UNL1       -0.4728
     13 C         137.8620  141.1859  162.8865 C.ar    1  UNL1        0.1387
     14 C         138.4125  140.9586  164.2632 C.ar    1  UNL1        0.0378
     15 C         138.7901  142.1285  165.1225 C.ar    1  UNL1        0.0145
     16 C         138.6172  143.5259  164.6052 C.ar    1  UNL1        0.0579
     17 CL        138.9948  144.6959  165.4647 Cl      1  UNL1       -0.0822
     18 C         138.0667  143.7532  163.2285 C.ar    1  UNL1        0.0145
     19 C         137.6891  142.5833  162.3692 C.ar    1  UNL1        0.0378
     20 C         142.1633  139.0278  166.0601 C.3     1  UNL1        0.0992
     21 C         141.7064  140.1370  166.9607 C.ar    1  UNL1       -0.0061
     22 C         142.5573  141.3598  167.1355 C.ar    1  UNL1       -0.0021
     23 C         142.1004  142.4690  168.0360 C.ar    1  UNL1        0.0111
     24 C         140.7925  142.3553  168.7618 C.ar    1  UNL1        0.0577
     25 CL        140.3356  143.4644  169.6624 Cl      1  UNL1       -0.0822
     26 C         139.9416  141.1324  168.5870 C.ar    1  UNL1        0.0111
     27 C         140.3986  140.0232  167.6864 C.ar    1  UNL1       -0.0021
@<TRIPOS>BOND
     1     9     8    1
     2     9    11    1
     3    11    12    1
     4    12    13    1
     5    13    14   ar
     6    14    15   ar
     7    15    16   ar
     8    16    17    1
     9    16    18   ar
    10    18    19   ar
    11     9     7    1
    12     7     1    1
    13     1     2    1
    14     2     3    1
    15     3     4    1
    16     4    20    1
    17    20    21    1
    18    21    22   ar
    19    22    23   ar
    20    23    24   ar
    21    24    25    1
    22    24    26   ar
    23    26    27   ar
    24     4     5    1
    25     5     6    1
    26    19    13   ar
    27     6     1    1
    28    27    21   ar
    29     8    10    1
