@<TRIPOS>MOLECULE
*****
 37 42 0 0 0
SMALL
GASTEIGER

@<TRIPOS>ATOM
      1 C         144.4047  142.7561  161.2867 C.3     1  UNL1        0.2068
      2 C         143.9721  141.5809  160.4611 C.3     1  UNL1        0.0646
      3 C         143.8433  140.2267  161.0933 C.3     1  UNL1        0.0759
      4 C         143.0262  139.8716  165.5043 C.3     1  UNL1        0.0464
      5 C         141.8855  139.9880  164.5372 C.3     1  UNL1        0.0234
      6 C         142.1579  140.1064  163.0669 C.3     1  UNL1        0.0725
      7 N         143.5709  140.1084  162.5636 N.3     1  UNL1       -0.2725
      8 C         144.7116  139.9920  163.5307 C.3     1  UNL1        0.0725
      9 C         144.4393  139.8736  165.0010 C.3     1  UNL1        0.0234
     10 F         139.6433  142.9318  170.9654 F       1  UNL1       -0.2041
     11 C         140.4025  142.1854  169.9087 C.ar    1  UNL1        0.1433
     12 C         140.4044  142.6832  168.4938 C.ar    1  UNL1        0.0299
     13 C         141.1635  141.9368  167.4371 C.ar    1  UNL1        0.0067
     14 C         141.9207  140.6925  167.7953 C.ar    1  UNL1        0.0540
     15 C         142.7539  139.7532  166.9746 C.ar    1  UNL1        0.1003
     16 N         143.2668  138.6748  167.8823 N.ar    1  UNL1       -0.0814
     17 O         142.7507  138.9476  169.2640 O.2     1  UNL1       -0.3536
     18 C         141.9187  140.1946  169.2102 C.ar    1  UNL1        0.1787
     19 C         141.1596  140.9410  170.2669 C.ar    1  UNL1        0.0698
     20 O         143.6196  144.0334  161.2425 O.3     1  UNL1       -0.4754
     21 C         142.4391  144.2200  162.1489 C.ar    1  UNL1        0.1385
     22 C         142.4831  143.6985  163.5546 C.ar    1  UNL1        0.0366
     23 C         141.3026  143.8851  164.4610 C.ar    1  UNL1       -0.0011
     24 C         140.0782  144.5932  163.9617 C.ar    1  UNL1       -0.0215
     25 C         140.0342  145.1148  162.5559 C.ar    1  UNL1       -0.0011
     26 C         141.2147  144.9282  161.6495 C.ar    1  UNL1        0.0366
     27 C         138.8977  144.7798  164.8681 C.3     1  UNL1        0.0361
     28 C         137.6778  143.9239  164.6967 C.3     1  UNL1        0.0900
     29 C         137.8102  142.5268  164.1672 C.ar    1  UNL1        0.2060
     30 N         137.4677  142.0739  162.7787 N.ar    1  UNL1       -0.2121
     31 C         137.7542  140.6044  162.6866 C.ar    1  UNL1        0.1185
     32 C         137.6091  139.6221  161.5623 C.ar    1  UNL1        0.0223
     33 C         137.9836  138.1845  161.7694 C.ar    1  UNL1        0.0017
     34 C         138.5031  137.7290  163.1009 C.ar    1  UNL1        0.0032
     35 C         138.6482  138.7113  164.2252 C.ar    1  UNL1        0.0391
     36 C         138.2737  140.1490  164.0180 C.ar    1  UNL1        0.1644
     37 O         138.3083  141.3371  164.9331 O.2     1  UNL1       -0.4384
@<TRIPOS>BOND
     1    10    11    1
     2    11    12   ar
     3    12    13   ar
     4    13    14   ar
     5    14    15   ar
     6    15     4    1
     7     4     5    1
     8     5     6    1
     9     6     7    1
    10     7     3    1
    11     3     2    1
    12     2     1    1
    13     1    20    1
    14    20    21    1
    15    21    22   ar
    16    22    23   ar
    17    23    24   ar
    18    24    27    1
    19    27    28    1
    20    28    29    1
    21    29    30   ar
    22    30    31   ar
    23    31    32   ar
    24    32    33   ar
    25    33    34   ar
    26    34    35   ar
    27    35    36   ar
    28    36    37   ar
    29    24    25   ar
    30    25    26   ar
    31     7     8    1
    32     8     9    1
    33    15    16   ar
    34    16    17   ar
    35    17    18   ar
    36    18    19   ar
    37    19    11   ar
    38    18    14   ar
    39     9     4    1
    40    26    21   ar
    41    37    29   ar
    42    36    31   ar
@<TRIPOS>MOLECULE
*****
 37 42 0 0 0
SMALL
GASTEIGER

@<TRIPOS>ATOM
      1 C         140.0822  138.2618  160.2924 C.3     1  UNL1        0.2068
      2 C         138.8526  139.0697  160.5849 C.3     1  UNL1        0.0646
      3 C         137.9121  138.6377  161.6706 C.3     1  UNL1        0.0759
      4 C         138.9408  139.4189  165.9813 C.3     1  UNL1        0.0464
      5 C         138.5641  140.5585  165.0817 C.3     1  UNL1        0.0234
      6 C         138.2212  140.2981  163.6448 C.3     1  UNL1        0.0725
      7 N         138.2550  138.8981  163.1075 N.3     1  UNL1       -0.2725
      8 C         138.6318  137.7584  164.0071 C.3     1  UNL1        0.0725
      9 C         138.9747  138.0189  165.4439 C.3     1  UNL1        0.0234
     10 F         144.0056  141.9496  170.2912 F       1  UNL1       -0.2041
     11 C         142.8584  141.3910  169.5025 C.ar    1  UNL1        0.1433
     12 C         142.9444  141.3119  168.0071 C.ar    1  UNL1        0.0299
     13 C         141.7972  140.7533  167.2185 C.ar    1  UNL1        0.0067
     14 C         140.5641  140.2738  167.9252 C.ar    1  UNL1        0.0540
     15 C         139.2837  139.6793  167.4181 C.ar    1  UNL1        0.1003
     16 N         138.4064  139.3910  168.6002 N.ar    1  UNL1       -0.0814
     17 O         139.1446  139.8072  169.8378 O.2     1  UNL1       -0.3536
     18 C         140.4782  140.3529  169.4206 C.ar    1  UNL1        0.1787
     19 C         141.6254  140.9115  170.2093 C.ar    1  UNL1        0.0698
     20 O         140.8833  137.6805  161.4194 O.3     1  UNL1       -0.4754
     21 C         142.0038  138.4701  162.0285 C.ar    1  UNL1        0.1385
     22 C         142.1021  138.6055  163.5192 C.ar    1  UNL1        0.0366
     23 C         143.2227  139.3951  164.1282 C.ar    1  UNL1       -0.0011
     24 C         144.2448  140.0492  163.2466 C.ar    1  UNL1       -0.0215
     25 C         144.1466  139.9138  161.7559 C.ar    1  UNL1       -0.0011
     26 C         143.0260  139.1242  161.1469 C.ar    1  UNL1        0.0366
     27 C         145.3654  140.8388  163.8556 C.3     1  UNL1        0.0361
     28 C         145.2291  142.3223  164.0302 C.3     1  UNL1        0.0900
     29 C         143.8846  142.9732  163.8937 C.ar    1  UNL1        0.2060
     30 N         143.4134  143.7868  162.7249 N.ar    1  UNL1       -0.2121
     31 C         142.0127  144.2412  163.0110 C.ar    1  UNL1        0.1185
     32 C         141.0455  145.0712  162.2201 C.ar    1  UNL1        0.0223
     33 C         139.6840  145.3685  162.7747 C.ar    1  UNL1        0.0017
     34 C         139.2895  144.8358  164.1203 C.ar    1  UNL1        0.0032
     35 C         140.2567  144.0058  164.9112 C.ar    1  UNL1        0.0391
     36 C         141.6183  143.7085  164.3566 C.ar    1  UNL1        0.1644
     37 O         142.7751  142.9249  164.9021 O.2     1  UNL1       -0.4384
@<TRIPOS>BOND
     1    10    11    1
     2    11    12   ar
     3    12    13   ar
     4    13    14   ar
     5    14    15   ar
     6    15     4    1
     7     4     5    1
     8     5     6    1
     9     6     7    1
    10     7     3    1
    11     3     2    1
    12     2     1    1
    13     1    20    1
    14    20    21    1
    15    21    22   ar
    16    22    23   ar
    17    23    24   ar
    18    24    27    1
    19    27    28    1
    20    28    29    1
    21    29    30   ar
    22    30    31   ar
    23    31    32   ar
    24    32    33   ar
    25    33    34   ar
    26    34    35   ar
    27    35    36   ar
    28    36    37   ar
    29    24    25   ar
    30    25    26   ar
    31     7     8    1
    32     8     9    1
    33    15    16   ar
    34    16    17   ar
    35    17    18   ar
    36    18    19   ar
    37    19    11   ar
    38    18    14   ar
    39     9     4    1
    40    26    21   ar
    41    37    29   ar
    42    36    31   ar
@<TRIPOS>MOLECULE
*****
 37 42 0 0 0
SMALL
GASTEIGER

@<TRIPOS>ATOM
      1 C         138.4346  138.0900  161.1839 C.3     1  UNL1        0.2068
      2 C         139.7700  138.4494  160.6029 C.3     1  UNL1        0.0646
      3 C         141.0294  138.0181  161.2942 C.3     1  UNL1        0.0759
      4 C         141.8532  139.3569  165.5108 C.3     1  UNL1        0.0464
      5 C         141.6261  140.3738  164.4318 C.3     1  UNL1        0.0234
      6 C         141.3515  139.9276  163.0263 C.3     1  UNL1        0.0725
      7 N         141.3040  138.4644  162.6997 N.3     1  UNL1       -0.2725
      8 C         141.5311  137.4474  163.7787 C.3     1  UNL1        0.0725
      9 C         141.8057  137.8937  165.1842 C.3     1  UNL1        0.0234
     10 F         140.3233  144.3625  170.3310 F       1  UNL1       -0.2041
     11 C         140.7317  143.2463  169.4160 C.ar    1  UNL1        0.1433
     12 C         140.1877  143.1842  168.0195 C.ar    1  UNL1        0.0299
     13 C         140.5962  142.0680  167.1045 C.ar    1  UNL1        0.0067
     14 C         141.5486  141.0140  167.5859 C.ar    1  UNL1        0.0540
     15 C         142.1278  139.8031  166.9163 C.ar    1  UNL1        0.1003
     16 N         143.0298  139.1169  167.8989 N.ar    1  UNL1       -0.0814
     17 O         143.0081  139.9036  169.1758 O.2     1  UNL1       -0.3536
     18 C         142.0926  141.0761  168.9823 C.ar    1  UNL1        0.1787
     19 C         141.6842  142.1923  169.8974 C.ar    1  UNL1        0.0698
     20 O         137.3892  139.1490  161.3727 O.3     1  UNL1       -0.4754
     21 C         137.7170  140.3991  162.1341 C.ar    1  UNL1        0.1385
     22 C         137.7883  140.3678  163.6321 C.ar    1  UNL1        0.0366
     23 C         138.1161  141.6179  164.3936 C.ar    1  UNL1       -0.0011
     24 C         138.3725  142.8992  163.6570 C.ar    1  UNL1       -0.0215
     25 C         138.3011  142.9305  162.1590 C.ar    1  UNL1       -0.0011
     26 C         137.9733  141.6804  161.3976 C.ar    1  UNL1        0.0366
     27 C         138.7002  144.1493  164.4184 C.3     1  UNL1        0.0361
     28 C         139.9153  144.9511  164.0566 C.3     1  UNL1        0.0900
     29 C         141.2274  144.2617  163.8261 C.ar    1  UNL1        0.2060
     30 N         141.7406  143.7605  162.5087 N.ar    1  UNL1       -0.2121
     31 C         143.0871  143.1416  162.7409 C.ar    1  UNL1        0.1185
     32 C         144.0639  142.4852  161.8109 C.ar    1  UNL1        0.0223
     33 C         145.3597  141.9476  162.3417 C.ar    1  UNL1        0.0017
     34 C         145.6788  142.0663  163.8026 C.ar    1  UNL1        0.0032
     35 C         144.7019  142.7226  164.7326 C.ar    1  UNL1        0.0391
     36 C         143.4061  143.2602  164.2018 C.ar    1  UNL1        0.1644
     37 O         142.2568  143.9525  164.8725 O.2     1  UNL1       -0.4384
@<TRIPOS>BOND
     1    10    11    1
     2    11    12   ar
     3    12    13   ar
     4    13    14   ar
     5    14    15   ar
     6    15     4    1
     7     4     5    1
     8     5     6    1
     9     6     7    1
    10     7     3    1
    11     3     2    1
    12     2     1    1
    13     1    20    1
    14    20    21    1
    15    21    22   ar
    16    22    23   ar
    17    23    24   ar
    18    24    27    1
    19    27    28    1
    20    28    29    1
    21    29    30   ar
    22    30    31   ar
    23    31    32   ar
    24    32    33   ar
    25    33    34   ar
    26    34    35   ar
    27    35    36   ar
    28    36    37   ar
    29    24    25   ar
    30    25    26   ar
    31     7     8    1
    32     8     9    1
    33    15    16   ar
    34    16    17   ar
    35    17    18   ar
    36    18    19   ar
    37    19    11   ar
    38    18    14   ar
    39     9     4    1
    40    26    21   ar
    41    37    29   ar
    42    36    31   ar
@<TRIPOS>MOLECULE
*****
 37 42 0 0 0
SMALL
GASTEIGER

@<TRIPOS>ATOM
      1 C         142.6086  137.6350  160.9470 C.3     1  UNL1        0.2068
      2 C         141.4551  138.3763  160.3388 C.3     1  UNL1        0.0646
      3 C         140.1086  138.3402  160.9989 C.3     1  UNL1        0.0759
      4 C         139.7279  139.2671  165.3860 C.3     1  UNL1        0.0464
      5 C         139.1197  138.0143  164.8285 C.3     1  UNL1        0.0234
      6 C         139.2466  137.7054  163.3662 C.3     1  UNL1        0.0725
      7 N         139.9817  138.6491  162.4613 N.3     1  UNL1       -0.2725
      8 C         140.5899  139.9019  163.0187 C.3     1  UNL1        0.0725
      9 C         140.4630  140.2108  164.4811 C.3     1  UNL1        0.0234
     10 F         142.9767  142.4215  170.8748 F       1  UNL1       -0.2041
     11 C         142.1840  141.7226  169.8102 C.ar    1  UNL1        0.1433
     12 C         142.7143  141.6455  168.4092 C.ar    1  UNL1        0.0299
     13 C         141.9217  140.9467  167.3446 C.ar    1  UNL1        0.0067
     14 C         140.5987  140.3249  167.6811 C.ar    1  UNL1        0.0540
     15 C         139.6009  139.5760  166.8483 C.ar    1  UNL1        0.1003
     16 N         138.4539  139.1902  167.7347 N.ar    1  UNL1       -0.0814
     17 O         138.7428  139.7007  169.1152 O.2     1  UNL1       -0.3536
     18 C         140.0684  140.4020  169.0820 C.ar    1  UNL1        0.1787
     19 C         140.8611  141.1009  170.1466 C.ar    1  UNL1        0.0698
     20 O         143.9538  138.2914  161.0453 O.3     1  UNL1       -0.4754
     21 C         144.1530  139.4594  161.9651 C.ar    1  UNL1        0.1385
     22 C         144.2187  140.8504  161.4075 C.ar    1  UNL1        0.0366
     23 C         144.4179  142.0184  162.3273 C.ar    1  UNL1       -0.0011
     24 C         144.5513  141.7955  163.8046 C.ar    1  UNL1       -0.0215
     25 C         144.4856  140.4045  164.3622 C.ar    1  UNL1       -0.0011
     26 C         144.2864  139.2365  163.4424 C.ar    1  UNL1        0.0366
     27 C         144.7505  142.9635  164.7244 C.3     1  UNL1        0.0361
     28 C         144.0138  144.2466  164.4776 C.3     1  UNL1        0.0900
     29 C         142.5274  144.2314  164.2767 C.ar    1  UNL1        0.2060
     30 N         141.5237  143.5654  165.1707 N.ar    1  UNL1       -0.2121
     31 C         140.1596  143.8019  164.5931 C.ar    1  UNL1        0.1185
     32 C         138.7920  143.3827  165.0445 C.ar    1  UNL1        0.0223
     33 C         137.5852  143.7755  164.2452 C.ar    1  UNL1        0.0017
     34 C         137.7458  144.5877  162.9943 C.ar    1  UNL1        0.0032
     35 C         139.1134  145.0069  162.5428 C.ar    1  UNL1        0.0391
     36 C         140.3204  144.6140  163.3422 C.ar    1  UNL1        0.1644
     37 O         141.7837  144.8795  163.1467 O.2     1  UNL1       -0.4384
@<TRIPOS>BOND
     1    10    11    1
     2    11    12   ar
     3    12    13   ar
     4    13    14   ar
     5    14    15   ar
     6    15     4    1
     7     4     5    1
     8     5     6    1
     9     6     7    1
    10     7     3    1
    11     3     2    1
    12     2     1    1
    13     1    20    1
    14    20    21    1
    15    21    22   ar
    16    22    23   ar
    17    23    24   ar
    18    24    27    1
    19    27    28    1
    20    28    29    1
    21    29    30   ar
    22    30    31   ar
    23    31    32   ar
    24    32    33   ar
    25    33    34   ar
    26    34    35   ar
    27    35    36   ar
    28    36    37   ar
    29    24    25   ar
    30    25    26   ar
    31     7     8    1
    32     8     9    1
    33    15    16   ar
    34    16    17   ar
    35    17    18   ar
    36    18    19   ar
    37    19    11   ar
    38    18    14   ar
    39     9     4    1
    40    26    21   ar
    41    37    29   ar
    42    36    31   ar
@<TRIPOS>MOLECULE
*****
 37 42 0 0 0
SMALL
GASTEIGER

@<TRIPOS>ATOM
      1 C         138.6124  140.8125  158.7409 C.3     1  UNL1        0.2068
      2 C         138.1670  142.1172  159.3321 C.3     1  UNL1        0.0646
      3 C         138.9859  142.7734  160.4039 C.3     1  UNL1        0.0759
      4 C         139.0044  141.0825  164.5741 C.3     1  UNL1        0.0464
      5 C         137.7058  141.4503  163.9196 C.3     1  UNL1        0.0234
      6 C         137.6997  142.0140  162.5296 C.3     1  UNL1        0.0725
      7 N         138.9921  142.2098  161.7939 N.3     1  UNL1       -0.2725
      8 C         140.2907  141.8420  162.4483 C.3     1  UNL1        0.0725
      9 C         140.2968  141.2783  163.8384 C.3     1  UNL1        0.0234
     10 F         141.2243  142.2787  171.2279 F       1  UNL1       -0.2041
     11 C         140.6979  141.9022  169.8747 C.ar    1  UNL1        0.1433
     12 C         140.9330  142.8056  168.7005 C.ar    1  UNL1        0.0299
     13 C         140.4066  142.4291  167.3473 C.ar    1  UNL1        0.0067
     14 C         139.6451  141.1492  167.1683 C.ar    1  UNL1        0.0540
     15 C         139.0106  140.5189  165.9641 C.ar    1  UNL1        0.1003
     16 N         138.3833  139.2259  166.3941 N.ar    1  UNL1       -0.0814
     17 O         138.6302  139.0572  167.8640 O.2     1  UNL1       -0.3536
     18 C         139.4100  140.2459  168.3424 C.ar    1  UNL1        0.1787
     19 C         139.9364  140.6224  169.6956 C.ar    1  UNL1        0.0698
     20 O         138.0949  139.5203  159.2997 O.3     1  UNL1       -0.4754
     21 C         138.7155  138.9346  160.5333 C.ar    1  UNL1        0.1385
     22 C         137.8513  138.5497  161.6973 C.ar    1  UNL1        0.0366
     23 C         138.4720  137.9639  162.9309 C.ar    1  UNL1       -0.0011
     24 C         139.9568  137.7630  163.0003 C.ar    1  UNL1       -0.0215
     25 C         140.8211  138.1479  161.8362 C.ar    1  UNL1       -0.0011
     26 C         140.2004  138.7337  160.6027 C.ar    1  UNL1        0.0366
     27 C         140.5775  137.1773  164.2338 C.3     1  UNL1        0.0361
     28 C         142.0527  137.3141  164.4685 C.3     1  UNL1        0.0900
     29 C         142.6738  138.6761  164.5644 C.ar    1  UNL1        0.2060
     30 N         143.5436  139.3234  163.5277 N.ar    1  UNL1       -0.2121
     31 C         143.9415  140.6774  164.0364 C.ar    1  UNL1        0.1185
     32 C         144.7912  141.7622  163.4439 C.ar    1  UNL1        0.0223
     33 C         145.0172  143.0364  164.2023 C.ar    1  UNL1        0.0017
     34 C         144.3934  143.2259  165.5533 C.ar    1  UNL1        0.0032
     35 C         143.5436  142.1410  166.1457 C.ar    1  UNL1        0.0391
     36 C         143.3177  140.8668  165.3873 C.ar    1  UNL1        0.1644
     37 O         142.5342  139.6300  165.7136 O.2     1  UNL1       -0.4384
@<TRIPOS>BOND
     1    10    11    1
     2    11    12   ar
     3    12    13   ar
     4    13    14   ar
     5    14    15   ar
     6    15     4    1
     7     4     5    1
     8     5     6    1
     9     6     7    1
    10     7     3    1
    11     3     2    1
    12     2     1    1
    13     1    20    1
    14    20    21    1
    15    21    22   ar
    16    22    23   ar
    17    23    24   ar
    18    24    27    1
    19    27    28    1
    20    28    29    1
    21    29    30   ar
    22    30    31   ar
    23    31    32   ar
    24    32    33   ar
    25    33    34   ar
    26    34    35   ar
    27    35    36   ar
    28    36    37   ar
    29    24    25   ar
    30    25    26   ar
    31     7     8    1
    32     8     9    1
    33    15    16   ar
    34    16    17   ar
    35    17    18   ar
    36    18    19   ar
    37    19    11   ar
    38    18    14   ar
    39     9     4    1
    40    26    21   ar
    41    37    29   ar
    42    36    31   ar
@<TRIPOS>MOLECULE
*****
 37 42 0 0 0
SMALL
GASTEIGER

@<TRIPOS>ATOM
      1 C         144.0130  141.1261  158.7879 C.3     1  UNL1        0.2068
      2 C         144.5124  142.3289  159.5320 C.3     1  UNL1        0.0646
      3 C         143.6666  142.9536  160.6019 C.3     1  UNL1        0.0759
      4 C         143.2526  140.9400  164.6049 C.3     1  UNL1        0.0464
      5 C         142.0284  141.3557  163.8443 C.3     1  UNL1        0.0234
      6 C         142.1664  142.0269  162.5099 C.3     1  UNL1        0.0725
      7 N         143.5286  142.2824  161.9362 N.3     1  UNL1       -0.2725
      8 C         144.7527  141.8667  162.6969 C.3     1  UNL1        0.0725
      9 C         144.6147  141.1955  164.0312 C.3     1  UNL1        0.0234
     10 F         140.7192  141.7786  171.2012 F       1  UNL1       -0.2041
     11 C         141.2985  141.4695  169.8526 C.ar    1  UNL1        0.1433
     12 C         141.2097  142.4809  168.7484 C.ar    1  UNL1        0.0299
     13 C         141.7889  142.1717  167.3998 C.ar    1  UNL1        0.0067
     14 C         142.4570  140.8512  167.1552 C.ar    1  UNL1        0.0540
     15 C         143.1145  140.2689  165.9393 C.ar    1  UNL1        0.1003
     16 N         143.6097  138.8976  166.2919 N.ar    1  UNL1       -0.0814
     17 O         143.2583  138.6324  167.7258 O.2     1  UNL1       -0.3536
     18 C         142.5459  139.8398  168.2594 C.ar    1  UNL1        0.1787
     19 C         141.9666  140.1490  169.6080 C.ar    1  UNL1        0.0698
     20 O         144.2417  139.7518  159.3440 O.3     1  UNL1       -0.4754
     21 C         143.2442  139.1493  160.2884 C.ar    1  UNL1        0.1385
     22 C         143.6971  138.6058  161.6111 C.ar    1  UNL1        0.0366
     23 C         142.6996  138.0033  162.5556 C.ar    1  UNL1       -0.0011
     24 C         141.2493  137.9443  162.1773 C.ar    1  UNL1       -0.0215
     25 C         140.7964  138.4878  160.8546 C.ar    1  UNL1       -0.0011
     26 C         141.7939  139.0903  159.9101 C.ar    1  UNL1        0.0366
     27 C         140.2519  137.3418  163.1217 C.3     1  UNL1        0.0361
     28 C         138.8680  137.9127  163.2156 C.3     1  UNL1        0.0900
     29 C         138.6765  139.3894  163.3964 C.ar    1  UNL1        0.2060
     30 N         138.1979  140.3512  162.3495 N.ar    1  UNL1       -0.2121
     31 C         138.1557  141.7199  162.9620 C.ar    1  UNL1        0.1185
     32 C         137.7636  143.0567  162.4060 C.ar    1  UNL1        0.0223
     33 C         137.8241  144.2775  163.2752 C.ar    1  UNL1        0.0017
     34 C         138.2767  144.1616  164.7007 C.ar    1  UNL1        0.0032
     35 C         138.6687  142.8248  165.2568 C.ar    1  UNL1        0.0391
     36 C         138.6082  141.6039  164.3874 C.ar    1  UNL1        0.1644
     37 O         138.9301  140.1637  164.6559 O.2     1  UNL1       -0.4384
@<TRIPOS>BOND
     1    10    11    1
     2    11    12   ar
     3    12    13   ar
     4    13    14   ar
     5    14    15   ar
     6    15     4    1
     7     4     5    1
     8     5     6    1
     9     6     7    1
    10     7     3    1
    11     3     2    1
    12     2     1    1
    13     1    20    1
    14    20    21    1
    15    21    22   ar
    16    22    23   ar
    17    23    24   ar
    18    24    27    1
    19    27    28    1
    20    28    29    1
    21    29    30   ar
    22    30    31   ar
    23    31    32   ar
    24    32    33   ar
    25    33    34   ar
    26    34    35   ar
    27    35    36   ar
    28    36    37   ar
    29    24    25   ar
    30    25    26   ar
    31     7     8    1
    32     8     9    1
    33    15    16   ar
    34    16    17   ar
    35    17    18   ar
    36    18    19   ar
    37    19    11   ar
    38    18    14   ar
    39     9     4    1
    40    26    21   ar
    41    37    29   ar
    42    36    31   ar
@<TRIPOS>MOLECULE
*****
 37 42 0 0 0
SMALL
GASTEIGER

@<TRIPOS>ATOM
      1 C         140.1512  144.4599  159.9807 C.3     1  UNL1        0.2068
      2 C         139.9532  145.6425  160.8819 C.3     1  UNL1        0.0646
      3 C         140.7259  145.7468  162.1633 C.3     1  UNL1        0.0759
      4 C         140.3167  142.5502  165.3041 C.3     1  UNL1        0.0464
      5 C         139.2634  143.6099  165.1707 C.3     1  UNL1        0.0234
      6 C         139.3998  144.6754  164.1238 C.3     1  UNL1        0.0725
      7 N         140.5895  144.6813  163.2102 N.3     1  UNL1       -0.2725
      8 C         141.6428  143.6216  163.3436 C.3     1  UNL1        0.0725
      9 C         141.5063  142.5561  164.3906 C.3     1  UNL1        0.0234
     10 F         143.4209  139.7496  171.0620 F       1  UNL1       -0.2041
     11 C         142.6610  140.2405  169.8655 C.ar    1  UNL1        0.1433
     12 C         143.1885  141.3928  169.0630 C.ar    1  UNL1        0.0299
     13 C         142.4286  141.8837  167.8665 C.ar    1  UNL1        0.0067
     14 C         141.1413  141.2223  167.4724 C.ar    1  UNL1        0.0540
     15 C         140.1802  141.4847  166.3511 C.ar    1  UNL1        0.1003
     16 N         139.0587  140.4946  166.4605 N.ar    1  UNL1       -0.0814
     17 O         139.3267  139.6203  167.6495 O.2     1  UNL1       -0.3536
     18 C         140.6138  140.0700  168.2749 C.ar    1  UNL1        0.1787
     19 C         141.3737  139.5791  169.4714 C.ar    1  UNL1        0.0698
     20 O         138.9731  143.6328  159.5588 O.3     1  UNL1       -0.4754
     21 C         138.7678  142.2668  160.1434 C.ar    1  UNL1        0.1385
     22 C         138.1730  142.1186  161.5125 C.ar    1  UNL1        0.0366
     23 C         137.9677  140.7526  162.0972 C.ar    1  UNL1       -0.0011
     24 C         138.3572  139.5348  161.3128 C.ar    1  UNL1       -0.0215
     25 C         138.9520  139.6830  159.9437 C.ar    1  UNL1       -0.0011
     26 C         139.1573  141.0490  159.3591 C.ar    1  UNL1        0.0366
     27 C         138.1519  138.1688  161.8975 C.3     1  UNL1        0.0361
     28 C         138.6193  137.8717  163.2915 C.3     1  UNL1        0.0900
     29 C         140.0295  138.1880  163.6932 C.ar    1  UNL1        0.2060
     30 N         140.6539  137.8942  165.0251 N.ar    1  UNL1       -0.2121
     31 C         142.0732  138.3783  164.9885 C.ar    1  UNL1        0.1185
     32 C         143.1681  138.3558  166.0136 C.ar    1  UNL1        0.0223
     33 C         144.5156  138.9262  165.6842 C.ar    1  UNL1        0.0017
     34 C         144.7684  139.5193  164.3298 C.ar    1  UNL1        0.0032
     35 C         143.6736  139.5418  163.3048 C.ar    1  UNL1        0.0391
     36 C         142.3259  138.9713  163.6341 C.ar    1  UNL1        0.1644
     37 O         141.0629  138.8537  162.8336 O.2     1  UNL1       -0.4384
@<TRIPOS>BOND
     1    10    11    1
     2    11    12   ar
     3    12    13   ar
     4    13    14   ar
     5    14    15   ar
     6    15     4    1
     7     4     5    1
     8     5     6    1
     9     6     7    1
    10     7     3    1
    11     3     2    1
    12     2     1    1
    13     1    20    1
    14    20    21    1
    15    21    22   ar
    16    22    23   ar
    17    23    24   ar
    18    24    27    1
    19    27    28    1
    20    28    29    1
    21    29    30   ar
    22    30    31   ar
    23    31    32   ar
    24    32    33   ar
    25    33    34   ar
    26    34    35   ar
    27    35    36   ar
    28    36    37   ar
    29    24    25   ar
    30    25    26   ar
    31     7     8    1
    32     8     9    1
    33    15    16   ar
    34    16    17   ar
    35    17    18   ar
    36    18    19   ar
    37    19    11   ar
    38    18    14   ar
    39     9     4    1
    40    26    21   ar
    41    37    29   ar
    42    36    31   ar
@<TRIPOS>MOLECULE
*****
 37 42 0 0 0
SMALL
GASTEIGER

@<TRIPOS>ATOM
      1 C         141.5124  138.3099  159.0931 C.3     1  UNL1        0.2068
      2 C         140.1044  138.8261  159.0599 C.3     1  UNL1        0.0646
      3 C         139.2840  138.8486  160.3154 C.3     1  UNL1        0.0759
      4 C         141.3158  138.9002  164.3303 C.3     1  UNL1        0.0464
      5 C         140.8964  137.5964  163.7187 C.3     1  UNL1        0.0234
      6 C         140.2191  137.5792  162.3804 C.3     1  UNL1        0.0725
      7 N         139.9612  138.8658  161.6537 N.3     1  UNL1       -0.2725
      8 C         140.3807  140.1696  162.2653 C.3     1  UNL1        0.0725
      9 C         141.0579  140.1868  163.6036 C.3     1  UNL1        0.0234
     10 F         140.4357  140.6511  171.1708 F       1  UNL1       -0.2041
     11 C         140.7557  140.2379  169.7648 C.ar    1  UNL1        0.1433
     12 C         139.7314  140.4064  168.6820 C.ar    1  UNL1        0.0299
     13 C         140.0514  139.9933  167.2760 C.ar    1  UNL1        0.0067
     14 C         141.3957  139.4116  166.9527 C.ar    1  UNL1        0.0540
     15 C         141.9931  138.9175  165.6686 C.ar    1  UNL1        0.1003
     16 N         143.3866  138.4435  165.9577 N.ar    1  UNL1       -0.0814
     17 O         143.6505  138.6448  167.4205 O.2     1  UNL1       -0.3536
     18 C         142.4200  139.2431  168.0355 C.ar    1  UNL1        0.1787
     19 C         142.1000  139.6563  169.4415 C.ar    1  UNL1        0.0698
     20 O         142.6585  139.2393  158.8236 O.3     1  UNL1       -0.4754
     21 C         143.3737  139.8989  159.9652 C.ar    1  UNL1        0.1385
     22 C         143.7121  141.3586  159.8953 C.ar    1  UNL1        0.0366
     23 C         144.4273  142.0182  161.0369 C.ar    1  UNL1       -0.0011
     24 C         144.8041  141.2181  162.2485 C.ar    1  UNL1       -0.0215
     25 C         144.4657  139.7584  162.3185 C.ar    1  UNL1       -0.0011
     26 C         143.7505  139.0988  161.1768 C.ar    1  UNL1        0.0366
     27 C         145.5193  141.8777  163.3901 C.3     1  UNL1        0.0361
     28 C         144.7873  142.1667  164.6672 C.3     1  UNL1        0.0900
     29 C         143.4073  142.7530  164.6245 C.ar    1  UNL1        0.2060
     30 N         142.3448  142.5837  165.6697 N.ar    1  UNL1       -0.2121
     31 C         141.1283  143.3376  165.2204 C.ar    1  UNL1        0.1185
     32 C         139.7778  143.5278  165.8448 C.ar    1  UNL1        0.0223
     33 C         138.7381  144.3531  165.1465 C.ar    1  UNL1        0.0017
     34 C         139.0488  144.9883  163.8236 C.ar    1  UNL1        0.0032
     35 C         140.3993  144.7981  163.1991 C.ar    1  UNL1        0.0391
     36 C         141.4390  143.9728  163.8975 C.ar    1  UNL1        0.1644
     37 O         142.8475  143.6114  163.5293 O.2     1  UNL1       -0.4384
@<TRIPOS>BOND
     1    10    11    1
     2    11    12   ar
     3    12    13   ar
     4    13    14   ar
     5    14    15   ar
     6    15     4    1
     7     4     5    1
     8     5     6    1
     9     6     7    1
    10     7     3    1
    11     3     2    1
    12     2     1    1
    13     1    20    1
    14    20    21    1
    15    21    22   ar
    16    22    23   ar
    17    23    24   ar
    18    24    27    1
    19    27    28    1
    20    28    29    1
    21    29    30   ar
    22    30    31   ar
    23    31    32   ar
    24    32    33   ar
    25    33    34   ar
    26    34    35   ar
    27    35    36   ar
    28    36    37   ar
    29    24    25   ar
    30    25    26   ar
    31     7     8    1
    32     8     9    1
    33    15    16   ar
    34    16    17   ar
    35    17    18   ar
    36    18    19   ar
    37    19    11   ar
    38    18    14   ar
    39     9     4    1
    40    26    21   ar
    41    37    29   ar
    42    36    31   ar
@<TRIPOS>MOLECULE
*****
 37 42 0 0 0
SMALL
GASTEIGER

@<TRIPOS>ATOM
      1 C         137.7358  143.1656  162.0292 C.3     1  UNL1        0.2068
      2 C         139.1226  143.3127  161.4768 C.3     1  UNL1        0.0646
      3 C         140.1792  144.0126  162.2792 C.3     1  UNL1        0.0759
      4 C         140.8922  142.8439  166.5660 C.3     1  UNL1        0.0464
      5 C         139.7229  143.7135  166.2102 C.3     1  UNL1        0.0234
      6 C         139.4853  144.1030  164.7813 C.3     1  UNL1        0.0725
      7 N         140.4169  143.6231  163.7081 N.3     1  UNL1       -0.2725
      8 C         141.5862  142.7535  164.0639 C.3     1  UNL1        0.0725
      9 C         141.8238  142.3640  165.4928 C.3     1  UNL1        0.0234
     10 F         143.3345  137.6319  170.7495 F       1  UNL1       -0.2041
     11 C         142.7932  138.8064  169.9896 C.ar    1  UNL1        0.1433
     12 C         142.7356  138.7682  168.4912 C.ar    1  UNL1        0.0299
     13 C         142.1942  139.9427  167.7312 C.ar    1  UNL1        0.0067
     14 C         141.7105  141.1554  168.4697 C.ar    1  UNL1        0.0540
     15 C         141.1299  142.4544  167.9949 C.ar    1  UNL1        0.1003
     16 N         140.8287  143.2954  169.1998 N.ar    1  UNL1       -0.0814
     17 O         141.2231  142.5162  170.4194 O.2     1  UNL1       -0.3536
     18 C         141.7682  141.1936  169.9680 C.ar    1  UNL1        0.1787
     19 C         142.3095  140.0191  170.7280 C.ar    1  UNL1        0.0698
     20 O         137.1019  141.8087  162.1130 O.3     1  UNL1       -0.4754
     21 C         137.8272  140.6824  162.7877 C.ar    1  UNL1        0.1385
     22 C         138.0612  139.3950  162.0544 C.ar    1  UNL1        0.0366
     23 C         138.7865  138.2687  162.7291 C.ar    1  UNL1       -0.0011
     24 C         139.2778  138.4298  164.1372 C.ar    1  UNL1       -0.0215
     25 C         139.0439  139.7173  164.8705 C.ar    1  UNL1       -0.0011
     26 C         138.3185  140.8436  164.1958 C.ar    1  UNL1        0.0366
     27 C         140.0032  137.3035  164.8119 C.3     1  UNL1        0.0361
     28 C         141.4257  137.0008  164.4448 C.3     1  UNL1        0.0900
     29 C         142.3419  138.1087  164.0169 C.ar    1  UNL1        0.2060
     30 N         142.2987  138.8305  162.7025 N.ar    1  UNL1       -0.2121
     31 C         143.3922  139.8573  162.7015 C.ar    1  UNL1        0.1185
     32 C         143.8262  140.8604  161.6741 C.ar    1  UNL1        0.0223
     33 C         144.9790  141.7762  161.9603 C.ar    1  UNL1        0.0017
     34 C         145.6981  141.6891  163.2739 C.ar    1  UNL1        0.0032
     35 C         145.2641  140.6860  164.3012 C.ar    1  UNL1        0.0391
     36 C         144.1112  139.7701  164.0150 C.ar    1  UNL1        0.1644
     37 O         143.4621  138.6895  164.8279 O.2     1  UNL1       -0.4384
@<TRIPOS>BOND
     1    10    11    1
     2    11    12   ar
     3    12    13   ar
     4    13    14   ar
     5    14    15   ar
     6    15     4    1
     7     4     5    1
     8     5     6    1
     9     6     7    1
    10     7     3    1
    11     3     2    1
    12     2     1    1
    13     1    20    1
    14    20    21    1
    15    21    22   ar
    16    22    23   ar
    17    23    24   ar
    18    24    27    1
    19    27    28    1
    20    28    29    1
    21    29    30   ar
    22    30    31   ar
    23    31    32   ar
    24    32    33   ar
    25    33    34   ar
    26    34    35   ar
    27    35    36   ar
    28    36    37   ar
    29    24    25   ar
    30    25    26   ar
    31     7     8    1
    32     8     9    1
    33    15    16   ar
    34    16    17   ar
    35    17    18   ar
    36    18    19   ar
    37    19    11   ar
    38    18    14   ar
    39     9     4    1
    40    26    21   ar
    41    37    29   ar
    42    36    31   ar
