@<TRIPOS>MOLECULE
*****
 38 42 0 0 0
SMALL
GASTEIGER

@<TRIPOS>ATOM
      1 N         140.8067  139.2436  164.8310 N.pl3   1  UNL1       -0.3035
      2 C         140.2092  139.8136  163.5788 C.3     1  UNL1        0.1082
      3 C         140.8005  139.4726  162.2431 C.3     1  UNL1        0.0938
      4 N         141.9892  138.5617  162.1596 N.3     1  UNL1       -0.2695
      5 C         142.5868  137.9917  163.4118 C.3     1  UNL1        0.0938
      6 C         141.9955  138.3326  164.7476 C.3     1  UNL1        0.1082
      7 C         141.0273  141.8624  169.3137 C.ar    1  UNL1        0.0170
      8 C         142.3201  142.4897  168.8835 C.ar    1  UNL1        0.0218
      9 C         142.9113  142.1488  167.5478 C.ar    1  UNL1        0.0989
     10 N         142.2098  141.1804  166.6422 N.ar    1  UNL1       -0.2426
     11 C         140.9170  140.5530  167.0724 C.ar    1  UNL1        0.0946
     12 C         140.2154  139.5846  166.1668 C.ar    1  UNL1        0.0658
     13 C         138.9227  138.9572  166.5969 C.ar    1  UNL1        0.0160
     14 C         138.3314  139.2982  167.9327 C.ar    1  UNL1        0.0014
     15 C         139.0329  140.2665  168.8382 C.ar    1  UNL1        0.0016
     16 C         140.3258  140.8940  168.4081 C.ar    1  UNL1        0.0200
     17 O         140.6544  141.2923  171.8208 O.co2   1  UNL1       -0.5446
     18 C         140.4361  142.2033  170.6494 C.2     1  UNL1        0.0730
     19 O         139.6265  143.4553  170.8137 O.co2   1  UNL1       -0.5446
     20 C         142.5805  138.2207  160.8239 C.3     1  UNL1        0.0769
     21 C         143.6120  139.1194  160.2089 C.3     1  UNL1        0.0437
     22 C         143.8250  140.5003  160.7545 C.ar    1  UNL1       -0.0206
     23 C         143.1511  141.6743  160.1083 C.ar    1  UNL1       -0.0011
     24 C         143.3641  143.0552  160.6540 C.ar    1  UNL1        0.0366
     25 C         144.2510  143.2620  161.8459 C.ar    1  UNL1        0.1385
     26 C         144.9248  142.0880  162.4921 C.ar    1  UNL1        0.0366
     27 C         144.7118  140.7072  161.9464 C.ar    1  UNL1       -0.0011
     28 O         144.4639  144.6429  162.3916 O.3     1  UNL1       -0.4754
     29 C         143.6387  145.1286  163.5463 C.3     1  UNL1        0.2068
     30 C         142.5813  144.2438  164.1370 C.3     1  UNL1        0.0646
     31 C         141.1625  144.7234  164.2204 C.3     1  UNL1        0.0759
     32 N         140.0504  143.8727  163.6825 N.3     1  UNL1       -0.2726
     33 C         139.0613  143.3776  164.6957 C.3     1  UNL1        0.0721
     34 C         137.8519  142.5171  164.4790 C.3     1  UNL1        0.0173
     35 C         137.3329  141.9392  163.1958 C.3     1  UNL1        0.0015
     36 C         137.8951  142.0791  161.8122 C.3     1  UNL1        0.0015
     37 C         139.1152  142.8314  161.3702 C.3     1  UNL1        0.0173
     38 C         140.0743  143.6297  162.2025 C.3     1  UNL1        0.0721
@<TRIPOS>UNITY_ATOM_ATTR
17 1
charge -1
@<TRIPOS>BOND
     1    17    18   ar
     2    18    19   ar
     3    18     7    1
     4     7     8   ar
     5     8     9   ar
     6     9    10   ar
     7    10    11   ar
     8    11    12   ar
     9    12     1    1
    10     1     2    1
    11     2     3    1
    12     3     4    1
    13     4    20    1
    14    20    21    1
    15    21    22    1
    16    22    23   ar
    17    23    24   ar
    18    24    25   ar
    19    25    28    1
    20    28    29    1
    21    29    30    1
    22    30    31    1
    23    31    32    1
    24    32    33    1
    25    33    34    1
    26    34    35    1
    27    35    36    1
    28    36    37    1
    29    37    38    1
    30    25    26   ar
    31    26    27   ar
    32     4     5    1
    33     5     6    1
    34    12    13   ar
    35    13    14   ar
    36    14    15   ar
    37    15    16   ar
    38    16     7   ar
    39    16    11   ar
    40     6     1    1
    41    27    22   ar
    42    38    32    1
@<TRIPOS>MOLECULE
*****
 38 42 0 0 0
SMALL
GASTEIGER

@<TRIPOS>ATOM
      1 N         143.2013  140.2144  164.5836 N.pl3   1  UNL1       -0.3035
      2 C         142.3361  139.6552  163.4933 C.3     1  UNL1        0.1082
      3 C         142.6074  140.0138  162.0623 C.3     1  UNL1        0.0938
      4 N         143.7438  140.9316  161.7215 N.3     1  UNL1       -0.2695
      5 C         144.6090  141.4909  162.8118 C.3     1  UNL1        0.0938
      6 C         144.3378  141.1323  164.2429 C.3     1  UNL1        0.1082
      7 C         140.9197  141.2670  169.1318 C.ar    1  UNL1        0.0170
      8 C         140.3214  142.5105  168.5439 C.ar    1  UNL1        0.0218
      9 C         140.5927  142.8691  167.1128 C.ar    1  UNL1        0.0989
     10 N         141.4622  141.9842  166.2698 N.ar    1  UNL1       -0.2426
     11 C         142.0605  140.7407  166.8577 C.ar    1  UNL1        0.0946
     12 C         142.9300  139.8558  166.0146 C.ar    1  UNL1        0.0658
     13 C         143.5283  138.6123  166.6025 C.ar    1  UNL1        0.0160
     14 C         143.2571  138.2536  168.0335 C.ar    1  UNL1        0.0014
     15 C         142.3875  139.1385  168.8766 C.ar    1  UNL1        0.0016
     16 C         141.7892  140.3821  168.2887 C.ar    1  UNL1        0.0200
     17 O         139.5576  139.9350  170.8983 O.co2   1  UNL1       -0.5446
     18 C         140.6484  140.9084  170.5628 C.2     1  UNL1        0.0730
     19 O         141.4680  141.5232  171.6584 O.co2   1  UNL1       -0.5446
     20 C         144.0151  141.2902  160.2905 C.3     1  UNL1        0.0769
     21 C         143.4680  142.5651  159.7201 C.3     1  UNL1        0.0437
     22 C         142.2214  143.1697  160.2949 C.ar    1  UNL1       -0.0206
     23 C         140.8755  142.6884  159.8397 C.ar    1  UNL1       -0.0011
     24 C         139.6289  143.2930  160.4145 C.ar    1  UNL1        0.0366
     25 C         139.7281  144.3790  161.4445 C.ar    1  UNL1        0.1385
     26 C         141.0739  144.8603  161.8997 C.ar    1  UNL1        0.0366
     27 C         142.3205  144.2557  161.3249 C.ar    1  UNL1       -0.0011
     28 O         138.4815  144.9837  162.0193 O.3     1  UNL1       -0.4754
     29 C         137.7670  144.2993  163.1468 C.3     1  UNL1        0.2068
     30 C         138.4963  143.3091  164.0057 C.3     1  UNL1        0.0646
     31 C         137.7423  142.1992  164.6762 C.3     1  UNL1        0.0759
     32 N         138.1686  140.7751  164.4760 N.3     1  UNL1       -0.2726
     33 C         138.1807  140.2928  163.0557 C.3     1  UNL1        0.0721
     34 C         138.5536  138.9379  162.5312 C.3     1  UNL1        0.0173
     35 C         139.0065  137.7305  163.2975 C.3     1  UNL1        0.0015
     36 C         139.1984  137.5799  164.7775 C.3     1  UNL1        0.0015
     37 C         138.9847  138.5995  165.8568 C.3     1  UNL1        0.0173
     38 C         138.5264  140.0215  165.7226 C.3     1  UNL1        0.0721
@<TRIPOS>UNITY_ATOM_ATTR
17 1
charge -1
@<TRIPOS>BOND
     1    17    18   ar
     2    18    19   ar
     3    18     7    1
     4     7     8   ar
     5     8     9   ar
     6     9    10   ar
     7    10    11   ar
     8    11    12   ar
     9    12     1    1
    10     1     2    1
    11     2     3    1
    12     3     4    1
    13     4    20    1
    14    20    21    1
    15    21    22    1
    16    22    23   ar
    17    23    24   ar
    18    24    25   ar
    19    25    28    1
    20    28    29    1
    21    29    30    1
    22    30    31    1
    23    31    32    1
    24    32    33    1
    25    33    34    1
    26    34    35    1
    27    35    36    1
    28    36    37    1
    29    37    38    1
    30    25    26   ar
    31    26    27   ar
    32     4     5    1
    33     5     6    1
    34    12    13   ar
    35    13    14   ar
    36    14    15   ar
    37    15    16   ar
    38    16     7   ar
    39    16    11   ar
    40     6     1    1
    41    27    22   ar
    42    38    32    1
@<TRIPOS>MOLECULE
*****
 38 42 0 0 0
SMALL
GASTEIGER

@<TRIPOS>ATOM
      1 N         139.2191  139.1392  165.0557 N.pl3   1  UNL1       -0.3035
      2 C         138.4733  139.9742  164.0575 C.3     1  UNL1        0.1082
      3 C         138.5841  139.6698  162.5929 C.3     1  UNL1        0.0938
      4 N         139.4408  138.5303  162.1265 N.3     1  UNL1       -0.2695
      5 C         140.1867  137.6952  163.1246 C.3     1  UNL1        0.0938
      6 C         140.0759  137.9996  164.5892 C.3     1  UNL1        0.1082
      7 C         141.0709  141.4536  169.3235 C.ar    1  UNL1        0.0170
      8 C         142.2184  142.0019  168.5282 C.ar    1  UNL1        0.0218
      9 C         142.3292  141.6975  167.0637 C.ar    1  UNL1        0.0989
     10 N         141.2926  140.8447  166.3943 N.ar    1  UNL1       -0.2426
     11 C         140.1450  140.2964  167.1896 C.ar    1  UNL1        0.0946
     12 C         139.1083  139.4436  166.5202 C.ar    1  UNL1        0.0658
     13 C         137.9608  138.8953  167.3155 C.ar    1  UNL1        0.0160
     14 C         137.8499  139.1997  168.7801 C.ar    1  UNL1        0.0014
     15 C         138.8866  140.0525  169.4494 C.ar    1  UNL1        0.0016
     16 C         140.0342  140.6008  168.6542 C.ar    1  UNL1        0.0200
     17 O         141.8436  141.0483  171.7706 O.co2   1  UNL1       -0.5446
     18 C         140.9600  141.7580  170.7881 C.2     1  UNL1        0.0730
     19 O         139.9656  142.7722  171.2702 O.co2   1  UNL1       -0.5446
     20 C         139.5517  138.2259  160.6619 C.3     1  UNL1        0.0769
     21 C         140.7687  138.6541  159.8968 C.3     1  UNL1        0.0437
     22 C         141.4437  139.9524  160.2268 C.ar    1  UNL1       -0.0206
     23 C         140.8034  141.2513  159.8354 C.ar    1  UNL1       -0.0011
     24 C         141.4784  142.5496  160.1653 C.ar    1  UNL1        0.0366
     25 C         142.7936  142.5490  160.8867 C.ar    1  UNL1        0.1385
     26 C         143.4338  141.2502  161.2781 C.ar    1  UNL1        0.0366
     27 C         142.7588  139.9519  160.9482 C.ar    1  UNL1       -0.0011
     28 O         143.4686  143.8473  161.2167 O.3     1  UNL1       -0.4754
     29 C         144.2665  143.9778  162.4802 C.3     1  UNL1        0.2068
     30 C         143.5688  144.2145  163.7868 C.3     1  UNL1        0.0646
     31 C         142.4933  145.2554  163.8850 C.3     1  UNL1        0.0759
     32 N         141.0502  144.8511  163.8216 N.3     1  UNL1       -0.2726
     33 C         140.2968  145.3154  162.6104 C.3     1  UNL1        0.0721
     34 C         138.8584  145.0792  162.2564 C.3     1  UNL1        0.0173
     35 C         137.8182  144.3205  163.0259 C.3     1  UNL1        0.0015
     36 C         137.9594  143.6105  164.3397 C.3     1  UNL1        0.0015
     37 C         139.1758  143.4839  165.2083 C.3     1  UNL1        0.0173
     38 C         140.5513  144.0360  164.9777 C.3     1  UNL1        0.0721
@<TRIPOS>UNITY_ATOM_ATTR
17 1
charge -1
@<TRIPOS>BOND
     1    17    18   ar
     2    18    19   ar
     3    18     7    1
     4     7     8   ar
     5     8     9   ar
     6     9    10   ar
     7    10    11   ar
     8    11    12   ar
     9    12     1    1
    10     1     2    1
    11     2     3    1
    12     3     4    1
    13     4    20    1
    14    20    21    1
    15    21    22    1
    16    22    23   ar
    17    23    24   ar
    18    24    25   ar
    19    25    28    1
    20    28    29    1
    21    29    30    1
    22    30    31    1
    23    31    32    1
    24    32    33    1
    25    33    34    1
    26    34    35    1
    27    35    36    1
    28    36    37    1
    29    37    38    1
    30    25    26   ar
    31    26    27   ar
    32     4     5    1
    33     5     6    1
    34    12    13   ar
    35    13    14   ar
    36    14    15   ar
    37    15    16   ar
    38    16     7   ar
    39    16    11   ar
    40     6     1    1
    41    27    22   ar
    42    38    32    1
@<TRIPOS>MOLECULE
*****
 38 42 0 0 0
SMALL
GASTEIGER

@<TRIPOS>ATOM
      1 N         142.0891  140.2053  164.6739 N.pl3   1  UNL1       -0.3035
      2 C         141.0723  140.6214  163.6527 C.3     1  UNL1        0.1082
      3 C         141.0159  139.9272  162.3243 C.3     1  UNL1        0.0938
      4 N         141.9763  138.8168  162.0169 N.3     1  UNL1       -0.2695
      5 C         142.9932  138.4006  163.0381 C.3     1  UNL1        0.0938
      6 C         143.0496  139.0948  164.3666 C.3     1  UNL1        0.1082
      7 C         140.0508  141.1143  169.3663 C.ar    1  UNL1        0.0170
      8 C         138.9189  140.1804  169.0556 C.ar    1  UNL1        0.0218
      9 C         138.8625  139.4862  167.7271 C.ar    1  UNL1        0.0989
     10 N         139.9380  139.7259  166.7094 N.ar    1  UNL1       -0.2426
     11 C         141.0699  140.6598  167.0201 C.ar    1  UNL1        0.0946
     12 C         142.1455  140.8995  166.0024 C.ar    1  UNL1        0.0658
     13 C         143.2774  141.8334  166.3131 C.ar    1  UNL1        0.0160
     14 C         143.3338  142.5276  167.6416 C.ar    1  UNL1        0.0014
     15 C         142.2583  142.2879  168.6593 C.ar    1  UNL1        0.0016
     16 C         141.1263  141.3540  168.3486 C.ar    1  UNL1        0.0200
     17 O         139.4429  143.1415  170.8733 O.co2   1  UNL1       -0.5446
     18 C         140.1072  141.8086  170.6948 C.2     1  UNL1        0.0730
     19 O         140.8280  141.1699  171.8448 O.co2   1  UNL1       -0.5446
     20 C         141.9199  138.1226  160.6884 C.3     1  UNL1        0.0769
     21 C         142.6752  138.6797  159.5184 C.3     1  UNL1        0.0437
     22 C         142.6719  140.1570  159.2583 C.ar    1  UNL1       -0.0206
     23 C         143.7714  141.0175  159.8068 C.ar    1  UNL1       -0.0011
     24 C         143.7682  142.4948  159.5467 C.ar    1  UNL1        0.0366
     25 C         142.6655  143.1116  158.7381 C.ar    1  UNL1        0.1385
     26 C         141.5661  142.2511  158.1896 C.ar    1  UNL1        0.0366
     27 C         141.5693  140.7738  158.4497 C.ar    1  UNL1       -0.0011
     28 O         142.6623  144.5888  158.4780 O.3     1  UNL1       -0.4754
     29 C         141.4005  145.3795  158.6592 C.3     1  UNL1        0.2068
     30 C         140.5458  145.1605  159.8723 C.3     1  UNL1        0.0646
     31 C         141.1721  145.1275  161.2349 C.3     1  UNL1        0.0759
     32 N         140.3588  144.7102  162.4242 N.3     1  UNL1       -0.2726
     33 C         141.1358  144.4152  163.6729 C.3     1  UNL1        0.0721
     34 C         140.6219  143.9803  165.0133 C.3     1  UNL1        0.0173
     35 C         139.2041  143.7329  165.4362 C.3     1  UNL1        0.0015
     36 C         137.9501  143.8594  164.6229 C.3     1  UNL1        0.0015
     37 C         137.8041  144.2645  163.1860 C.3     1  UNL1        0.0173
     38 C         138.8761  144.6431  162.2075 C.3     1  UNL1        0.0721
@<TRIPOS>UNITY_ATOM_ATTR
17 1
charge -1
@<TRIPOS>BOND
     1    17    18   ar
     2    18    19   ar
     3    18     7    1
     4     7     8   ar
     5     8     9   ar
     6     9    10   ar
     7    10    11   ar
     8    11    12   ar
     9    12     1    1
    10     1     2    1
    11     2     3    1
    12     3     4    1
    13     4    20    1
    14    20    21    1
    15    21    22    1
    16    22    23   ar
    17    23    24   ar
    18    24    25   ar
    19    25    28    1
    20    28    29    1
    21    29    30    1
    22    30    31    1
    23    31    32    1
    24    32    33    1
    25    33    34    1
    26    34    35    1
    27    35    36    1
    28    36    37    1
    29    37    38    1
    30    25    26   ar
    31    26    27   ar
    32     4     5    1
    33     5     6    1
    34    12    13   ar
    35    13    14   ar
    36    14    15   ar
    37    15    16   ar
    38    16     7   ar
    39    16    11   ar
    40     6     1    1
    41    27    22   ar
    42    38    32    1
@<TRIPOS>MOLECULE
*****
 38 42 0 0 0
SMALL
GASTEIGER

@<TRIPOS>ATOM
      1 N         138.5786  140.3487  163.8541 N.pl3   1  UNL1       -0.3035
      2 C         138.0404  141.6562  163.3532 C.3     1  UNL1        0.1082
      3 C         137.9193  141.9018  161.8785 C.3     1  UNL1        0.0938
      4 N         138.3364  140.8401  160.9045 N.3     1  UNL1       -0.2695
      5 C         138.8747  139.5325  161.4053 C.3     1  UNL1        0.0938
      6 C         138.9958  139.2869  162.8801 C.3     1  UNL1        0.1082
      7 C         140.8948  141.3208  168.4028 C.ar    1  UNL1        0.0170
      8 C         141.8106  142.2982  167.7275 C.ar    1  UNL1        0.0218
      9 C         141.6895  142.5438  166.2528 C.ar    1  UNL1        0.0989
     10 N         140.6526  141.8121  165.4532 N.ar    1  UNL1       -0.2426
     11 C         139.7367  140.8348  166.1284 C.ar    1  UNL1        0.0946
     12 C         138.6997  140.1031  165.3289 C.ar    1  UNL1        0.0658
     13 C         137.7839  139.1257  166.0041 C.ar    1  UNL1        0.0160
     14 C         137.9050  138.8801  167.4789 C.ar    1  UNL1        0.0014
     15 C         138.9419  139.6117  168.2784 C.ar    1  UNL1        0.0016
     16 C         139.8578  140.5891  167.6032 C.ar    1  UNL1        0.0200
     17 O         142.1418  140.2384  170.4085 O.co2   1  UNL1       -0.5446
     18 C         141.0159  141.0752  169.8775 C.2     1  UNL1        0.0730
     19 O         140.0110  141.6663  170.8213 O.co2   1  UNL1       -0.5446
     20 C         138.2153  141.0857  159.4297 C.3     1  UNL1        0.0769
     21 C         139.1960  141.9840  158.7360 C.3     1  UNL1        0.0437
     22 C         140.4493  142.4120  159.4403 C.ar    1  UNL1       -0.0206
     23 C         141.5844  141.4453  159.6051 C.ar    1  UNL1       -0.0011
     24 C         142.8377  141.8733  160.3094 C.ar    1  UNL1        0.0366
     25 C         142.9559  143.2680  160.8489 C.ar    1  UNL1        0.1385
     26 C         141.8208  144.2346  160.6840 C.ar    1  UNL1        0.0366
     27 C         140.5675  143.8066  159.9797 C.ar    1  UNL1       -0.0011
     28 O         144.2092  143.6960  161.5532 O.3     1  UNL1       -0.4754
     29 C         145.1875  142.6662  162.0355 C.3     1  UNL1        0.2068
     30 C         145.1481  142.2044  163.4621 C.3     1  UNL1        0.0646
     31 C         145.4185  140.7666  163.7927 C.3     1  UNL1        0.0759
     32 N         144.2774  139.8057  163.9500 N.3     1  UNL1       -0.2726
     33 C         143.7958  139.1550  162.6872 C.3     1  UNL1        0.0721
     34 C         142.6866  138.1605  162.5119 C.3     1  UNL1        0.0173
     35 C         141.7851  137.5711  163.5559 C.3     1  UNL1        0.0015
     36 C         141.7702  137.8307  165.0332 C.3     1  UNL1        0.0015
     37 C         142.6530  138.7438  165.8313 C.3     1  UNL1        0.0173
     38 C         143.7688  139.6228  165.3492 C.3     1  UNL1        0.0721
@<TRIPOS>UNITY_ATOM_ATTR
17 1
charge -1
@<TRIPOS>BOND
     1    17    18   ar
     2    18    19   ar
     3    18     7    1
     4     7     8   ar
     5     8     9   ar
     6     9    10   ar
     7    10    11   ar
     8    11    12   ar
     9    12     1    1
    10     1     2    1
    11     2     3    1
    12     3     4    1
    13     4    20    1
    14    20    21    1
    15    21    22    1
    16    22    23   ar
    17    23    24   ar
    18    24    25   ar
    19    25    28    1
    20    28    29    1
    21    29    30    1
    22    30    31    1
    23    31    32    1
    24    32    33    1
    25    33    34    1
    26    34    35    1
    27    35    36    1
    28    36    37    1
    29    37    38    1
    30    25    26   ar
    31    26    27   ar
    32     4     5    1
    33     5     6    1
    34    12    13   ar
    35    13    14   ar
    36    14    15   ar
    37    15    16   ar
    38    16     7   ar
    39    16    11   ar
    40     6     1    1
    41    27    22   ar
    42    38    32    1
@<TRIPOS>MOLECULE
*****
 38 42 0 0 0
SMALL
GASTEIGER

@<TRIPOS>ATOM
      1 N         140.2784  143.7183  161.7351 N.pl3   1  UNL1       -0.3035
      2 C         141.4710  144.4076  161.1414 C.3     1  UNL1        0.1082
      3 C         141.6986  144.3694  159.6592 C.3     1  UNL1        0.0938
      4 N         140.7335  143.6419  158.7708 N.3     1  UNL1       -0.2695
      5 C         139.5408  142.9526  159.3644 C.3     1  UNL1        0.0938
      6 C         139.3132  142.9908  160.8466 C.3     1  UNL1        0.1082
      7 C         141.4991  142.0969  166.5185 C.ar    1  UNL1        0.0170
      8 C         142.5645  141.2098  165.9459 C.ar    1  UNL1        0.0218
      9 C         142.7921  141.1716  164.4638 C.ar    1  UNL1        0.0989
     10 N         141.9542  142.0205  163.5542 N.ar    1  UNL1       -0.2426
     11 C         140.8888  142.9076  164.1268 C.ar    1  UNL1        0.0946
     12 C         140.0508  143.7565  163.2172 C.ar    1  UNL1        0.0658
     13 C         138.9854  144.6436  163.7898 C.ar    1  UNL1        0.0160
     14 C         138.7578  144.6818  165.2719 C.ar    1  UNL1        0.0014
     15 C         139.5957  143.8329  166.1815 C.ar    1  UNL1        0.0016
     16 C         140.6612  142.9458  165.6089 C.ar    1  UNL1        0.0200
     17 O         142.2701  142.8071  168.8957 O.co2   1  UNL1       -0.5446
     18 C         141.2715  142.1351  168.0006 C.2     1  UNL1        0.0730
     19 O         140.0453  141.5014  168.5877 O.co2   1  UNL1       -0.5446
     20 C         140.9611  143.6037  157.2886 C.3     1  UNL1        0.0769
     21 C         141.7683  142.4944  156.6821 C.3     1  UNL1        0.0437
     22 C         142.1077  141.2817  157.4970 C.ar    1  UNL1       -0.0206
     23 C         141.1710  140.1104  157.5244 C.ar    1  UNL1       -0.0011
     24 C         141.5104  138.8976  158.3393 C.ar    1  UNL1        0.0366
     25 C         142.7865  138.8562  159.1268 C.ar    1  UNL1        0.1385
     26 C         143.7231  140.0274  159.0993 C.ar    1  UNL1        0.0366
     27 C         143.3837  141.2402  158.2844 C.ar    1  UNL1       -0.0011
     28 O         143.1258  137.6434  159.9417 O.3     1  UNL1       -0.4754
     29 C         143.7100  137.8015  161.3142 C.3     1  UNL1        0.2068
     30 C         142.8210  138.1448  162.4726 C.3     1  UNL1        0.0646
     31 C         141.3590  137.8136  162.4200 C.3     1  UNL1        0.0759
     32 N         140.3883  138.5652  163.2818 N.3     1  UNL1       -0.2726
     33 C         140.4740  138.2873  164.7534 C.3     1  UNL1        0.0721
     34 C         139.6527  138.8708  165.8647 C.3     1  UNL1        0.0173
     35 C         138.5430  139.8764  165.7790 C.3     1  UNL1        0.0015
     36 C         137.9804  140.5468  164.5608 C.3     1  UNL1        0.0015
     37 C         138.3886  140.3772  163.1274 C.3     1  UNL1        0.0173
     38 C         139.4602  139.4953  162.5582 C.3     1  UNL1        0.0721
@<TRIPOS>UNITY_ATOM_ATTR
17 1
charge -1
@<TRIPOS>BOND
     1    17    18   ar
     2    18    19   ar
     3    18     7    1
     4     7     8   ar
     5     8     9   ar
     6     9    10   ar
     7    10    11   ar
     8    11    12   ar
     9    12     1    1
    10     1     2    1
    11     2     3    1
    12     3     4    1
    13     4    20    1
    14    20    21    1
    15    21    22    1
    16    22    23   ar
    17    23    24   ar
    18    24    25   ar
    19    25    28    1
    20    28    29    1
    21    29    30    1
    22    30    31    1
    23    31    32    1
    24    32    33    1
    25    33    34    1
    26    34    35    1
    27    35    36    1
    28    36    37    1
    29    37    38    1
    30    25    26   ar
    31    26    27   ar
    32     4     5    1
    33     5     6    1
    34    12    13   ar
    35    13    14   ar
    36    14    15   ar
    37    15    16   ar
    38    16     7   ar
    39    16    11   ar
    40     6     1    1
    41    27    22   ar
    42    38    32    1
@<TRIPOS>MOLECULE
*****
 38 42 0 0 0
SMALL
GASTEIGER

@<TRIPOS>ATOM
      1 N         142.4835  140.2540  160.2765 N.pl3   1  UNL1       -0.3035
      2 C         142.5499  139.5636  161.6065 C.3     1  UNL1        0.1082
      3 C         143.5681  139.9891  162.6225 C.3     1  UNL1        0.0938
      4 N         144.5199  141.1051  162.3085 N.3     1  UNL1       -0.2695
      5 C         144.4535  141.7956  160.9785 C.3     1  UNL1        0.0938
      6 C         143.4353  141.3701  159.9625 C.3     1  UNL1        0.1082
      7 C         138.2640  141.2912  157.4269 C.ar    1  UNL1        0.0170
      8 C         138.1906  142.6608  158.0342 C.ar    1  UNL1        0.0218
      9 C         139.2087  143.0863  159.0501 C.ar    1  UNL1        0.0989
     10 N         140.3003  142.1423  159.4589 N.ar    1  UNL1       -0.2426
     11 C         140.3737  140.7727  158.8517 C.ar    1  UNL1        0.0946
     12 C         141.4653  139.8285  159.2605 C.ar    1  UNL1        0.0658
     13 C         141.5387  138.4589  158.6533 C.ar    1  UNL1        0.0160
     14 C         140.5206  138.0334  157.6373 C.ar    1  UNL1        0.0014
     15 C         139.4290  138.9774  157.2285 C.ar    1  UNL1        0.0016
     16 C         139.3555  140.3471  157.8357 C.ar    1  UNL1        0.0200
     17 O         137.5165  141.0645  154.9491 O.co2   1  UNL1       -0.5446
     18 C         137.2458  140.8656  156.4110 C.2     1  UNL1        0.0730
     19 O         135.9569  140.2413  156.8568 O.co2   1  UNL1       -0.5446
     20 C         145.5380  141.5306  163.3245 C.3     1  UNL1        0.0769
     21 C         145.1969  142.5903  164.3298 C.3     1  UNL1        0.0437
     22 C         143.8302  143.2084  164.3336 C.ar    1  UNL1       -0.0206
     23 C         142.7151  142.5581  165.0976 C.ar    1  UNL1       -0.0011
     24 C         141.3483  143.1763  165.1014 C.ar    1  UNL1        0.0366
     25 C         141.0968  144.4446  164.3411 C.ar    1  UNL1        0.1385
     26 C         142.2118  145.0948  163.5771 C.ar    1  UNL1        0.0366
     27 C         143.5786  144.4767  163.5733 C.ar    1  UNL1       -0.0011
     28 O         139.7300  145.0628  164.3449 O.3     1  UNL1       -0.4754
     29 C         138.5916  144.3615  165.0249 C.3     1  UNL1        0.2068
     30 C         137.6122  143.5633  164.2164 C.3     1  UNL1        0.0646
     31 C         138.0456  142.9251  162.9300 C.3     1  UNL1        0.0759
     32 N         138.1689  141.4331  162.8371 N.3     1  UNL1       -0.2726
     33 C         138.7071  140.7473  164.0578 C.3     1  UNL1        0.0721
     34 C         138.9470  139.2832  164.2786 C.3     1  UNL1        0.0173
     35 C         138.7080  138.1432  163.3334 C.3     1  UNL1        0.0015
     36 C         138.1699  138.1859  161.9339 C.3     1  UNL1        0.0015
     37 C         137.7380  139.3790  161.1340 C.3     1  UNL1        0.0173
     38 C         137.7376  140.8242  161.5359 C.3     1  UNL1        0.0721
@<TRIPOS>UNITY_ATOM_ATTR
17 1
charge -1
@<TRIPOS>BOND
     1    17    18   ar
     2    18    19   ar
     3    18     7    1
     4     7     8   ar
     5     8     9   ar
     6     9    10   ar
     7    10    11   ar
     8    11    12   ar
     9    12     1    1
    10     1     2    1
    11     2     3    1
    12     3     4    1
    13     4    20    1
    14    20    21    1
    15    21    22    1
    16    22    23   ar
    17    23    24   ar
    18    24    25   ar
    19    25    28    1
    20    28    29    1
    21    29    30    1
    22    30    31    1
    23    31    32    1
    24    32    33    1
    25    33    34    1
    26    34    35    1
    27    35    36    1
    28    36    37    1
    29    37    38    1
    30    25    26   ar
    31    26    27   ar
    32     4     5    1
    33     5     6    1
    34    12    13   ar
    35    13    14   ar
    36    14    15   ar
    37    15    16   ar
    38    16     7   ar
    39    16    11   ar
    40     6     1    1
    41    27    22   ar
    42    38    32    1
@<TRIPOS>MOLECULE
*****
 38 42 0 0 0
SMALL
GASTEIGER

@<TRIPOS>ATOM
      1 N         138.6251  140.6309  159.8526 N.pl3   1  UNL1       -0.3035
      2 C         137.9340  140.9166  161.1528 C.3     1  UNL1        0.1082
      3 C         137.9701  139.9047  162.2595 C.3     1  UNL1        0.0938
      4 N         138.6974  138.6072  162.0660 N.3     1  UNL1       -0.2695
      5 C         139.3886  138.3215  160.7657 C.3     1  UNL1        0.0938
      6 C         139.3524  139.3333  159.6590 C.3     1  UNL1        0.1082
      7 C         140.3335  145.0664  157.7530 C.ar    1  UNL1        0.0170
      8 C         141.2599  145.2603  158.9166 C.ar    1  UNL1        0.0218
      9 C         141.2961  144.2485  160.0233 C.ar    1  UNL1        0.0989
     10 N         140.4058  143.0426  159.9664 N.ar    1  UNL1       -0.2426
     11 C         139.4793  142.8487  158.8028 C.ar    1  UNL1        0.0946
     12 C         138.5890  141.6428  158.7458 C.ar    1  UNL1        0.0658
     13 C         137.6626  141.4488  157.5822 C.ar    1  UNL1        0.0160
     14 C         137.6264  142.4607  156.4755 C.ar    1  UNL1        0.0014
     15 C         138.5167  143.6665  156.5324 C.ar    1  UNL1        0.0016
     16 C         139.4432  143.8605  157.6961 C.ar    1  UNL1        0.0200
     17 O         141.2870  145.9958  155.5221 O.co2   1  UNL1       -0.5446
     18 C         140.2974  146.0782  156.6463 C.2     1  UNL1        0.0730
     19 O         139.2717  147.1725  156.6637 O.co2   1  UNL1       -0.5446
     20 C         138.7335  137.5953  163.1727 C.3     1  UNL1        0.0769
     21 C         139.3968  137.9319  164.4753 C.3     1  UNL1        0.0437
     22 C         140.8355  138.3557  164.4968 C.ar    1  UNL1       -0.0206
     23 C         141.7264  138.0452  163.3306 C.ar    1  UNL1       -0.0011
     24 C         143.1651  138.4690  163.3521 C.ar    1  UNL1        0.0366
     25 C         143.7130  139.2034  164.5399 C.ar    1  UNL1        0.1385
     26 C         142.8221  139.5138  165.7060 C.ar    1  UNL1        0.0366
     27 C         141.3834  139.0900  165.6845 C.ar    1  UNL1       -0.0011
     28 O         145.1517  139.6272  164.5614 O.3     1  UNL1       -0.4754
     29 C         145.5866  140.8440  163.7996 C.3     1  UNL1        0.2068
     30 C         145.1133  142.2029  164.2232 C.3     1  UNL1        0.0646
     31 C         144.4587  143.1134  163.2270 C.3     1  UNL1        0.0759
     32 N         142.9954  143.4228  163.3420 N.3     1  UNL1       -0.2726
     33 C         142.6420  144.8786  163.4167 C.3     1  UNL1        0.0721
     34 C         141.2849  145.5066  163.5349 C.3     1  UNL1        0.0173
     35 C         139.9461  144.8340  163.6076 C.3     1  UNL1        0.0015
     36 C         139.6338  143.3671  163.5801 C.3     1  UNL1        0.0015
     37 C         140.5831  142.2106  163.4730 C.3     1  UNL1        0.0173
     38 C         142.0792  142.2354  163.3671 C.3     1  UNL1        0.0721
@<TRIPOS>UNITY_ATOM_ATTR
17 1
charge -1
@<TRIPOS>BOND
     1    17    18   ar
     2    18    19   ar
     3    18     7    1
     4     7     8   ar
     5     8     9   ar
     6     9    10   ar
     7    10    11   ar
     8    11    12   ar
     9    12     1    1
    10     1     2    1
    11     2     3    1
    12     3     4    1
    13     4    20    1
    14    20    21    1
    15    21    22    1
    16    22    23   ar
    17    23    24   ar
    18    24    25   ar
    19    25    28    1
    20    28    29    1
    21    29    30    1
    22    30    31    1
    23    31    32    1
    24    32    33    1
    25    33    34    1
    26    34    35    1
    27    35    36    1
    28    36    37    1
    29    37    38    1
    30    25    26   ar
    31    26    27   ar
    32     4     5    1
    33     5     6    1
    34    12    13   ar
    35    13    14   ar
    36    14    15   ar
    37    15    16   ar
    38    16     7   ar
    39    16    11   ar
    40     6     1    1
    41    27    22   ar
    42    38    32    1
@<TRIPOS>MOLECULE
*****
 38 42 0 0 0
SMALL
GASTEIGER

@<TRIPOS>ATOM
      1 N         140.6025  139.2008  164.5976 N.pl3   1  UNL1       -0.3035
      2 C         141.2637  137.8815  164.3286 C.3     1  UNL1        0.1082
      3 C         141.8460  137.5964  162.9760 C.3     1  UNL1        0.0938
      4 N         141.7672  138.6305  161.8923 N.3     1  UNL1       -0.2695
      5 C         141.1060  139.9498  162.1613 C.3     1  UNL1        0.0938
      6 C         140.5237  140.2350  163.5139 C.3     1  UNL1        0.1082
      7 C         140.9162  141.5297  169.2320 C.ar    1  UNL1        0.0170
      8 C         142.2377  142.1239  168.8439 C.ar    1  UNL1        0.0218
      9 C         142.8200  141.8387  167.4913 C.ar    1  UNL1        0.0989
     10 N         142.0809  140.9594  166.5267 N.ar    1  UNL1       -0.2426
     11 C         140.7594  140.3653  166.9148 C.ar    1  UNL1        0.0946
     12 C         140.0202  139.4859  165.9502 C.ar    1  UNL1        0.0658
     13 C         138.6987  138.8918  166.3382 C.ar    1  UNL1        0.0160
     14 C         138.1163  139.1769  167.6908 C.ar    1  UNL1        0.0014
     15 C         138.8555  140.0562  168.6554 C.ar    1  UNL1        0.0016
     16 C         140.1771  140.6504  168.2674 C.ar    1  UNL1        0.0200
     17 O         140.7800  141.0201  171.7759 O.co2   1  UNL1       -0.5446
     18 C         140.3339  141.8149  170.5846 C.2     1  UNL1        0.0730
     19 O         139.3054  142.8947  170.7459 O.co2   1  UNL1       -0.5446
     20 C         142.3495  138.3454  160.5397 C.3     1  UNL1        0.0769
     21 C         143.4219  139.2338  159.9824 C.3     1  UNL1        0.0437
     22 C         143.0575  140.5480  159.3578 C.ar    1  UNL1       -0.0206
     23 C         143.8417  141.7816  159.6946 C.ar    1  UNL1       -0.0011
     24 C         143.4773  143.0958  159.0700 C.ar    1  UNL1        0.0366
     25 C         142.3287  143.1764  158.1086 C.ar    1  UNL1        0.1385
     26 C         141.5445  141.9429  157.7718 C.ar    1  UNL1        0.0366
     27 C         141.9089  140.6287  158.3964 C.ar    1  UNL1       -0.0011
     28 O         141.9643  144.4906  157.4840 O.3     1  UNL1       -0.4754
     29 C         141.5044  145.6288  158.3460 C.3     1  UNL1        0.2068
     30 C         140.4632  145.3977  159.4007 C.3     1  UNL1        0.0646
     31 C         140.8774  145.0602  160.8023 C.3     1  UNL1        0.0759
     32 N         139.8846  144.4617  161.7542 N.3     1  UNL1       -0.2726
     33 C         139.8072  145.1083  163.1055 C.3     1  UNL1        0.0721
     34 C         138.9265  144.7486  164.2653 C.3     1  UNL1        0.0173
     35 C         137.9058  143.6536  164.3603 C.3     1  UNL1        0.0015
     36 C         137.5136  142.6477  163.3189 C.3     1  UNL1        0.0015
     37 C         138.0453  142.4885  161.9253 C.3     1  UNL1        0.0173
     38 C         139.1005  143.2959  161.2290 C.3     1  UNL1        0.0721
@<TRIPOS>UNITY_ATOM_ATTR
17 1
charge -1
@<TRIPOS>BOND
     1    17    18   ar
     2    18    19   ar
     3    18     7    1
     4     7     8   ar
     5     8     9   ar
     6     9    10   ar
     7    10    11   ar
     8    11    12   ar
     9    12     1    1
    10     1     2    1
    11     2     3    1
    12     3     4    1
    13     4    20    1
    14    20    21    1
    15    21    22    1
    16    22    23   ar
    17    23    24   ar
    18    24    25   ar
    19    25    28    1
    20    28    29    1
    21    29    30    1
    22    30    31    1
    23    31    32    1
    24    32    33    1
    25    33    34    1
    26    34    35    1
    27    35    36    1
    28    36    37    1
    29    37    38    1
    30    25    26   ar
    31    26    27   ar
    32     4     5    1
    33     5     6    1
    34    12    13   ar
    35    13    14   ar
    36    14    15   ar
    37    15    16   ar
    38    16     7   ar
    39    16    11   ar
    40     6     1    1
    41    27    22   ar
    42    38    32    1
