@<TRIPOS>MOLECULE
*****
 32 36 0 0 0
SMALL
GASTEIGER

@<TRIPOS>ATOM
      1 N         141.7033  142.1085  165.1935 N.ar    1  UNL1       -0.2753
      2 C         140.9545  141.0993  164.3744 C.ar    1  UNL1        0.1497
      3 N         141.2129  141.3938  162.9265 N.ar    1  UNL1       -0.2220
      4 C         142.1214  142.5851  162.8508 C.ar    1  UNL1        0.1497
      5 C         142.7118  143.3246  161.6870 C.ar    1  UNL1        0.1643
      6 N         143.6052  144.5059  161.9242 N.ar    1  UNL1       -0.2063
      7 C         143.9083  144.9476  163.3253 C.ar    1  UNL1        0.2015
      8 N         143.3179  144.2080  164.4891 N.ar    1  UNL1       -0.2045
      9 C         142.4244  143.0268  164.2518 C.ar    1  UNL1        0.1711
     10 C         140.0977  139.9903  164.9094 C.ar    1  UNL1        0.0451
     11 C         138.8097  140.3085  165.6091 C.ar    1  UNL1        0.0047
     12 C         137.9530  139.1995  166.1440 C.ar    1  UNL1        0.0115
     13 C         138.3844  137.7723  165.9793 C.ar    1  UNL1        0.0585
     14 CL        137.5277  136.6633  166.5143 Cl      1  UNL1       -0.0822
     15 C         139.6725  137.4542  165.2797 C.ar    1  UNL1        0.0229
     16 C         140.5292  138.5632  164.7447 C.ar    1  UNL1        0.0614
     17 CL        141.8173  138.2450  164.0450 Cl      1  UNL1       -0.0821
     18 CL        141.7973  142.4181  171.1848 Cl      1  UNL1       -0.0822
     19 C         141.7738  142.3407  169.6870 C.ar    1  UNL1        0.0578
     20 C         140.6198  142.9205  168.9241 C.ar    1  UNL1        0.0129
     21 C         140.5963  142.8431  167.4262 C.ar    1  UNL1        0.0185
     22 C         141.7268  142.1859  166.6913 C.ar    1  UNL1        0.0668
     23 C         142.8808  141.6062  167.4543 C.ar    1  UNL1        0.0185
     24 C         142.9043  141.6836  168.9521 C.ar    1  UNL1        0.0129
     25 N         142.4087  142.8829  160.2858 N.pl3   1  UNL1       -0.2591
     26 H         142.5062  141.9355  160.0364 H       1  UNL1        0.1680
     27 N         141.9570  143.8846  159.2648 N.3     1  UNL1       -0.2069
     28 C         140.7732  144.7615  159.5469 C.3     1  UNL1        0.0918
     29 C         140.3215  145.7632  158.5259 C.3     1  UNL1        0.0191
     30 C         141.0536  145.8881  157.2227 C.3     1  UNL1        0.0030
     31 C         142.2375  145.0112  156.9405 C.3     1  UNL1        0.0191
     32 C         142.6892  144.0095  157.9616 C.3     1  UNL1        0.0918
@<TRIPOS>BOND
     1    18    19    1
     2    19    20   ar
     3    20    21   ar
     4    21    22   ar
     5    22     1    1
     6     1     2   ar
     7     2    10    1
     8    10    11   ar
     9    11    12   ar
    10    12    13   ar
    11    13    14    1
    12    13    15   ar
    13    15    16   ar
    14    16    17    1
    15     2     3   ar
    16     3     4   ar
    17     4     5   ar
    18     5    25    1
    19    25    27    1
    20    27    28    1
    21    28    29    1
    22    29    30    1
    23    30    31    1
    24    31    32    1
    25     5     6   ar
    26     6     7   ar
    27     7     8   ar
    28     8     9   ar
    29    22    23   ar
    30    23    24   ar
    31    24    19   ar
    32     9     1   ar
    33    16    10   ar
    34     9     4   ar
    35    32    27    1
    36    25    26    1
@<TRIPOS>MOLECULE
*****
 32 36 0 0 0
SMALL
GASTEIGER

@<TRIPOS>ATOM
      1 N         139.0392  141.7381  159.8835 N.ar    1  UNL1       -0.2753
      2 C         138.3974  140.4334  160.2520 C.ar    1  UNL1        0.1497
      3 N         137.5473  139.9926  159.0974 N.ar    1  UNL1       -0.2220
      4 C         137.6638  141.0250  158.0154 C.ar    1  UNL1        0.1497
      5 C         137.0493  141.1220  156.6504 C.ar    1  UNL1        0.1643
      6 N         137.3569  142.2978  155.7713 N.ar    1  UNL1       -0.2063
      7 C         138.2790  143.3766  156.2572 C.ar    1  UNL1        0.2015
      8 N         138.8934  143.2795  157.6221 N.ar    1  UNL1       -0.2045
      9 C         138.5858  142.1037  158.5012 C.ar    1  UNL1        0.1711
     10 C         138.5746  139.6984  161.5476 C.ar    1  UNL1        0.0451
     11 C         139.3245  138.3998  161.5767 C.ar    1  UNL1        0.0047
     12 C         139.5017  137.6649  162.8723 C.ar    1  UNL1        0.0115
     13 C         138.9288  138.2288  164.1388 C.ar    1  UNL1        0.0585
     14 CL        139.1060  137.4939  165.4344 Cl      1  UNL1       -0.0822
     15 C         138.1789  139.5275  164.1096 C.ar    1  UNL1        0.0229
     16 C         138.0017  140.2623  162.8141 C.ar    1  UNL1        0.0614
     17 CL        137.2517  141.5611  162.7849 Cl      1  UNL1       -0.0821
     18 CL        142.7661  144.9336  163.3331 Cl      1  UNL1       -0.0822
     19 C         141.8344  144.1347  162.4707 C.ar    1  UNL1        0.0578
     20 C         140.5119  144.7116  162.0605 C.ar    1  UNL1        0.0129
     21 C         139.5802  143.9127  161.1981 C.ar    1  UNL1        0.0185
     22 C         139.9709  142.5370  160.7459 C.ar    1  UNL1        0.0668
     23 C         141.2934  141.9601  161.1561 C.ar    1  UNL1        0.0185
     24 C         142.2251  142.7589  162.0185 C.ar    1  UNL1        0.0129
     25 N         136.1272  140.0432  156.1646 N.pl3   1  UNL1       -0.2591
     26 H         136.4971  139.2090  155.7951 H       1  UNL1        0.1680
     27 N         134.6416  140.2355  156.2418 N.3     1  UNL1       -0.2069
     28 C         133.8444  139.5090  157.2842 C.3     1  UNL1        0.0918
     29 C         132.3588  139.7013  157.3614 C.3     1  UNL1        0.0191
     30 C         131.6703  140.6200  156.3961 C.3     1  UNL1        0.0030
     31 C         132.4675  141.3465  155.3535 C.3     1  UNL1        0.0191
     32 C         133.9531  141.1543  155.2764 C.3     1  UNL1        0.0918
@<TRIPOS>BOND
     1    18    19    1
     2    19    20   ar
     3    20    21   ar
     4    21    22   ar
     5    22     1    1
     6     1     2   ar
     7     2    10    1
     8    10    11   ar
     9    11    12   ar
    10    12    13   ar
    11    13    14    1
    12    13    15   ar
    13    15    16   ar
    14    16    17    1
    15     2     3   ar
    16     3     4   ar
    17     4     5   ar
    18     5    25    1
    19    25    27    1
    20    27    28    1
    21    28    29    1
    22    29    30    1
    23    30    31    1
    24    31    32    1
    25     5     6   ar
    26     6     7   ar
    27     7     8   ar
    28     8     9   ar
    29    22    23   ar
    30    23    24   ar
    31    24    19   ar
    32     9     1   ar
    33    16    10   ar
    34     9     4   ar
    35    32    27    1
    36    25    26    1
@<TRIPOS>MOLECULE
*****
 32 36 0 0 0
SMALL
GASTEIGER

@<TRIPOS>ATOM
      1 N         142.7905  139.5689  160.3962 N.ar    1  UNL1       -0.2753
      2 C         141.6863  138.5607  160.5154 C.ar    1  UNL1        0.1497
      3 N         141.5041  137.9122  159.1752 N.ar    1  UNL1       -0.2220
      4 C         142.4958  138.5196  158.2277 C.ar    1  UNL1        0.1497
      5 C         142.7775  138.2725  156.7753 C.ar    1  UNL1        0.1643
      6 N         143.8543  139.0494  156.0774 N.ar    1  UNL1       -0.2063
      7 C         144.6493  140.0733  156.8321 C.ar    1  UNL1        0.2015
      8 N         144.3676  140.3204  158.2845 N.ar    1  UNL1       -0.2045
      9 C         143.2908  139.5435  158.9823 C.ar    1  UNL1        0.1711
     10 C         140.9019  138.2548  161.7570 C.ar    1  UNL1        0.0451
     11 C         141.5727  137.5926  162.9237 C.ar    1  UNL1        0.0047
     12 C         140.7884  137.2867  164.1652 C.ar    1  UNL1        0.0115
     13 C         139.3332  137.6431  164.2398 C.ar    1  UNL1        0.0585
     14 CL        138.5489  137.3372  165.4813 Cl      1  UNL1       -0.0822
     15 C         138.6625  138.3054  163.0731 C.ar    1  UNL1        0.0229
     16 C         139.4468  138.6113  161.8316 C.ar    1  UNL1        0.0614
     17 CL        138.7760  139.2736  160.6648 Cl      1  UNL1       -0.0821
     18 CL        144.8456  143.0862  164.8014 Cl      1  UNL1       -0.0822
     19 C         144.3318  142.2069  163.7001 C.ar    1  UNL1        0.0578
     20 C         144.9748  140.8768  163.4406 C.ar    1  UNL1        0.0129
     21 C         144.4610  139.9975  162.3393 C.ar    1  UNL1        0.0185
     22 C         143.3043  140.4482  161.4975 C.ar    1  UNL1        0.0668
     23 C         142.6613  141.7784  161.7570 C.ar    1  UNL1        0.0185
     24 C         143.1751  142.6577  162.8583 C.ar    1  UNL1        0.0129
     25 N         141.9824  137.2486  156.0207 N.pl3   1  UNL1       -0.2591
     26 H         141.2713  137.5348  155.4029 H       1  UNL1        0.1680
     27 N         142.2708  135.7884  156.2073 N.3     1  UNL1       -0.2069
     28 C         143.3255  135.3506  157.1798 C.3     1  UNL1        0.0918
     29 C         143.6139  133.8904  157.3665 C.3     1  UNL1        0.0191
     30 C         142.8476  132.8682  156.5806 C.3     1  UNL1        0.0030
     31 C         141.7928  133.3060  155.6080 C.3     1  UNL1        0.0191
     32 C         141.5044  134.7661  155.4214 C.3     1  UNL1        0.0918
@<TRIPOS>BOND
     1    18    19    1
     2    19    20   ar
     3    20    21   ar
     4    21    22   ar
     5    22     1    1
     6     1     2   ar
     7     2    10    1
     8    10    11   ar
     9    11    12   ar
    10    12    13   ar
    11    13    14    1
    12    13    15   ar
    13    15    16   ar
    14    16    17    1
    15     2     3   ar
    16     3     4   ar
    17     4     5   ar
    18     5    25    1
    19    25    27    1
    20    27    28    1
    21    28    29    1
    22    29    30    1
    23    30    31    1
    24    31    32    1
    25     5     6   ar
    26     6     7   ar
    27     7     8   ar
    28     8     9   ar
    29    22    23   ar
    30    23    24   ar
    31    24    19   ar
    32     9     1   ar
    33    16    10   ar
    34     9     4   ar
    35    32    27    1
    36    25    26    1
@<TRIPOS>MOLECULE
*****
 32 36 0 0 0
SMALL
GASTEIGER

@<TRIPOS>ATOM
      1 N         141.6111  142.1306  165.0997 N.ar    1  UNL1       -0.2753
      2 C         140.8087  141.1226  164.3315 C.ar    1  UNL1        0.1497
      3 N         140.9910  141.4022  162.8691 N.ar    1  UNL1       -0.2220
      4 C         141.9060  142.5831  162.7336 C.ar    1  UNL1        0.1497
      5 C         142.4398  143.3066  161.5329 C.ar    1  UNL1        0.1643
      6 N         143.3568  144.4802  161.7107 N.ar    1  UNL1       -0.2063
      7 C         143.7400  144.9303  163.0893 C.ar    1  UNL1        0.2015
      8 N         143.2062  144.2068  164.2900 N.ar    1  UNL1       -0.2045
      9 C         142.2892  143.0332  164.1121 C.ar    1  UNL1        0.1711
     10 C         139.9711  140.0272  164.9220 C.ar    1  UNL1        0.0451
     11 C         138.7476  140.3664  165.7208 C.ar    1  UNL1        0.0047
     12 C         137.9100  139.2710  166.3113 C.ar    1  UNL1        0.0115
     13 C         138.2960  137.8366  166.1030 C.ar    1  UNL1        0.0585
     14 CL        137.4583  136.7412  166.6936 Cl      1  UNL1       -0.0822
     15 C         139.5194  137.4974  165.3043 C.ar    1  UNL1        0.0229
     16 C         140.3570  138.5928  164.7138 C.ar    1  UNL1        0.0614
     17 CL        141.5805  138.2536  163.9149 Cl      1  UNL1       -0.0821
     18 CL        142.0337  142.4892  171.0741 Cl      1  UNL1       -0.0822
     19 C         141.9281  142.3996  169.5805 C.ar    1  UNL1        0.0578
     20 C         140.6898  142.8835  168.8858 C.ar    1  UNL1        0.0129
     21 C         140.5842  142.7938  167.3922 C.ar    1  UNL1        0.0185
     22 C         141.7167  142.2202  166.5933 C.ar    1  UNL1        0.0668
     23 C         142.9549  141.7363  167.2880 C.ar    1  UNL1        0.0185
     24 C         143.0606  141.8260  168.7815 C.ar    1  UNL1        0.0129
     25 N         142.0565  142.8564  160.1543 N.pl3   1  UNL1       -0.2591
     26 H         141.7353  143.5120  159.4938 H       1  UNL1        0.1680
     27 N         142.1628  141.4072  159.7819 N.3     1  UNL1       -0.2069
     28 C         140.9738  140.6893  159.2154 C.3     1  UNL1        0.0918
     29 C         141.0800  139.2401  158.8431 C.3     1  UNL1        0.0191
     30 C         142.3752  138.5089  159.0373 C.3     1  UNL1        0.0030
     31 C         143.5642  139.2267  159.6038 C.3     1  UNL1        0.0191
     32 C         143.4580  140.6759  159.9762 C.3     1  UNL1        0.0918
@<TRIPOS>BOND
     1    18    19    1
     2    19    20   ar
     3    20    21   ar
     4    21    22   ar
     5    22     1    1
     6     1     2   ar
     7     2    10    1
     8    10    11   ar
     9    11    12   ar
    10    12    13   ar
    11    13    14    1
    12    13    15   ar
    13    15    16   ar
    14    16    17    1
    15     2     3   ar
    16     3     4   ar
    17     4     5   ar
    18     5    25    1
    19    25    27    1
    20    27    28    1
    21    28    29    1
    22    29    30    1
    23    30    31    1
    24    31    32    1
    25     5     6   ar
    26     6     7   ar
    27     7     8   ar
    28     8     9   ar
    29    22    23   ar
    30    23    24   ar
    31    24    19   ar
    32     9     1   ar
    33    16    10   ar
    34     9     4   ar
    35    32    27    1
    36    25    26    1
@<TRIPOS>MOLECULE
*****
 32 36 0 0 0
SMALL
GASTEIGER

@<TRIPOS>ATOM
      1 N         139.8714  140.3797  161.1592 N.ar    1  UNL1       -0.2753
      2 C         140.7831  139.2172  161.4188 C.ar    1  UNL1        0.1497
      3 N         140.8128  138.3666  160.1837 N.ar    1  UNL1       -0.2220
      4 C         139.9195  139.0034  159.1607 C.ar    1  UNL1        0.1497
      5 C         139.5607  138.6111  157.7581 C.ar    1  UNL1        0.1643
      6 N         138.6201  139.4629  156.9583 N.ar    1  UNL1       -0.2063
      7 C         138.0383  140.7071  157.5612 C.ar    1  UNL1        0.2015
      8 N         138.3971  141.0994  158.9639 N.ar    1  UNL1       -0.2045
      9 C         139.3377  140.2476  159.7636 C.ar    1  UNL1        0.1711
     10 C         141.5333  138.9519  162.6904 C.ar    1  UNL1        0.0451
     11 C         142.9398  139.4485  162.8490 C.ar    1  UNL1        0.0047
     12 C         143.6899  139.1832  164.1205 C.ar    1  UNL1        0.0115
     13 C         143.0336  138.4213  165.2335 C.ar    1  UNL1        0.0585
     14 CL        143.7838  138.1560  166.5051 Cl      1  UNL1       -0.0822
     15 C         141.6271  137.9247  165.0750 C.ar    1  UNL1        0.0229
     16 C         140.8769  138.1900  163.8034 C.ar    1  UNL1        0.0614
     17 CL        139.4704  137.6935  163.6449 Cl      1  UNL1       -0.0821
     18 CL        138.5852  144.7850  165.0244 Cl      1  UNL1       -0.0822
     19 C         138.9068  143.6837  164.0581 C.ar    1  UNL1        0.0578
     20 C         137.8550  142.6806  163.6871 C.ar    1  UNL1        0.0129
     21 C         138.1766  141.5793  162.7208 C.ar    1  UNL1        0.0185
     22 C         139.5498  141.4810  162.1255 C.ar    1  UNL1        0.0668
     23 C         140.6016  142.4841  162.4965 C.ar    1  UNL1        0.0185
     24 C         140.2800  143.5854  163.4628 C.ar    1  UNL1        0.0129
     25 N         140.1426  137.3669  157.1552 N.pl3   1  UNL1       -0.2591
     26 H         139.6145  136.5363  157.1349 H       1  UNL1        0.1680
     27 N         141.5291  137.3883  156.5832 N.3     1  UNL1       -0.2069
     28 C         142.1519  138.6903  156.1747 C.3     1  UNL1        0.0918
     29 C         143.5384  138.7117  155.6027 C.3     1  UNL1        0.0191
     30 C         144.3021  137.4311  155.4393 C.3     1  UNL1        0.0030
     31 C         143.6794  136.1290  155.8478 C.3     1  UNL1        0.0191
     32 C         142.2929  136.1076  156.4198 C.3     1  UNL1        0.0918
@<TRIPOS>BOND
     1    18    19    1
     2    19    20   ar
     3    20    21   ar
     4    21    22   ar
     5    22     1    1
     6     1     2   ar
     7     2    10    1
     8    10    11   ar
     9    11    12   ar
    10    12    13   ar
    11    13    14    1
    12    13    15   ar
    13    15    16   ar
    14    16    17    1
    15     2     3   ar
    16     3     4   ar
    17     4     5   ar
    18     5    25    1
    19    25    27    1
    20    27    28    1
    21    28    29    1
    22    29    30    1
    23    30    31    1
    24    31    32    1
    25     5     6   ar
    26     6     7   ar
    27     7     8   ar
    28     8     9   ar
    29    22    23   ar
    30    23    24   ar
    31    24    19   ar
    32     9     1   ar
    33    16    10   ar
    34     9     4   ar
    35    32    27    1
    36    25    26    1
@<TRIPOS>MOLECULE
*****
 32 36 0 0 0
SMALL
GASTEIGER

@<TRIPOS>ATOM
      1 N         142.2175  140.1423  161.5427 N.ar    1  UNL1       -0.2753
      2 C         140.9975  139.2872  161.7167 C.ar    1  UNL1        0.1497
      3 N         140.7468  138.5686  160.4241 N.ar    1  UNL1       -0.2220
      4 C         141.8120  138.9797  159.4512 C.ar    1  UNL1        0.1497
      5 C         142.0717  138.5941  158.0250 C.ar    1  UNL1        0.1643
      6 N         143.2402  139.1810  157.2902 N.ar    1  UNL1       -0.2063
      7 C         144.1491  140.1535  157.9816 C.ar    1  UNL1        0.2015
      8 N         143.8895  140.5392  159.4077 N.ar    1  UNL1       -0.2045
      9 C         142.7209  139.9523  160.1425 C.ar    1  UNL1        0.1711
     10 C         140.1729  139.1710  162.9644 C.ar    1  UNL1        0.0451
     11 C         139.1895  140.2475  163.3164 C.ar    1  UNL1        0.0047
     12 C         138.3649  140.1313  164.5640 C.ar    1  UNL1        0.0115
     13 C         138.5238  138.9386  165.4596 C.ar    1  UNL1        0.0585
     14 CL        137.6992  138.8224  166.7073 Cl      1  UNL1       -0.0822
     15 C         139.5072  137.8621  165.1076 C.ar    1  UNL1        0.0229
     16 C         140.3318  137.9783  163.8600 C.ar    1  UNL1        0.0614
     17 CL        141.3153  136.9017  163.5080 Cl      1  UNL1       -0.0821
     18 CL        144.6560  143.6988  165.7147 Cl      1  UNL1       -0.0822
     19 C         144.0464  142.8097  164.6717 C.ar    1  UNL1        0.0578
     20 C         144.6770  141.4867  164.3522 C.ar    1  UNL1        0.0129
     21 C         144.0674  140.5976  163.3092 C.ar    1  UNL1        0.0185
     22 C         142.8271  141.0314  162.5857 C.ar    1  UNL1        0.0668
     23 C         142.1965  142.3544  162.9051 C.ar    1  UNL1        0.0185
     24 C         142.8062  143.2435  163.9481 C.ar    1  UNL1        0.0129
     25 N         141.1627  137.6214  157.3337 N.pl3   1  UNL1       -0.2591
     26 H         140.1863  137.7322  157.3936 H       1  UNL1        0.1680
     27 N         141.7415  136.4801  156.5512 N.3     1  UNL1       -0.2069
     28 C         142.9798  135.7881  157.0387 C.3     1  UNL1        0.0918
     29 C         143.5586  134.6468  156.2561 C.3     1  UNL1        0.0191
     30 C         142.8990  134.1974  154.9861 C.3     1  UNL1        0.0030
     31 C         141.6606  134.8894  154.4986 C.3     1  UNL1        0.0191
     32 C         141.0819  136.0307  155.2811 C.3     1  UNL1        0.0918
@<TRIPOS>BOND
     1    18    19    1
     2    19    20   ar
     3    20    21   ar
     4    21    22   ar
     5    22     1    1
     6     1     2   ar
     7     2    10    1
     8    10    11   ar
     9    11    12   ar
    10    12    13   ar
    11    13    14    1
    12    13    15   ar
    13    15    16   ar
    14    16    17    1
    15     2     3   ar
    16     3     4   ar
    17     4     5   ar
    18     5    25    1
    19    25    27    1
    20    27    28    1
    21    28    29    1
    22    29    30    1
    23    30    31    1
    24    31    32    1
    25     5     6   ar
    26     6     7   ar
    27     7     8   ar
    28     8     9   ar
    29    22    23   ar
    30    23    24   ar
    31    24    19   ar
    32     9     1   ar
    33    16    10   ar
    34     9     4   ar
    35    32    27    1
    36    25    26    1
@<TRIPOS>MOLECULE
*****
 32 36 0 0 0
SMALL
GASTEIGER

@<TRIPOS>ATOM
      1 N         139.0461  140.8611  160.3130 N.ar    1  UNL1       -0.2753
      2 C         138.6181  142.2800  160.5447 C.ar    1  UNL1        0.1497
      3 N         138.2224  142.8666  159.2221 N.ar    1  UNL1       -0.2220
      4 C         138.4058  141.8102  158.1730 C.ar    1  UNL1        0.1497
      5 C         138.1751  141.8168  156.6909 C.ar    1  UNL1        0.1643
      6 N         138.4533  140.5840  155.8830 N.ar    1  UNL1       -0.2063
      7 C         138.9623  139.3446  156.5573 C.ar    1  UNL1        0.2015
      8 N         139.1931  139.3380  158.0394 N.ar    1  UNL1       -0.2045
      9 C         138.9148  140.5708  158.8473 C.ar    1  UNL1        0.1711
     10 C         138.5907  142.9880  161.8668 C.ar    1  UNL1        0.0451
     11 C         137.6101  142.5691  162.9217 C.ar    1  UNL1        0.0047
     12 C         137.5827  143.2770  164.2438 C.ar    1  UNL1        0.0115
     13 C         138.5360  144.4039  164.5110 C.ar    1  UNL1        0.0585
     14 CL        138.5086  145.1119  165.8332 Cl      1  UNL1       -0.0822
     15 C         139.5166  144.8229  163.4562 C.ar    1  UNL1        0.0229
     16 C         139.5440  144.1149  162.1341 C.ar    1  UNL1        0.0614
     17 CL        140.5246  144.5338  161.0791 Cl      1  UNL1       -0.0821
     18 CL        140.9487  137.0210  164.5123 Cl      1  UNL1       -0.0822
     19 C         140.4730  137.9810  163.4625 C.ar    1  UNL1        0.0578
     20 C         139.1179  137.8051  162.8439 C.ar    1  UNL1        0.0129
     21 C         138.6422  138.7651  161.7941 C.ar    1  UNL1        0.0185
     22 C         139.5217  139.9011  161.3628 C.ar    1  UNL1        0.0668
     23 C         140.8769  140.0770  161.9813 C.ar    1  UNL1        0.0185
     24 C         141.3525  139.1170  163.0312 C.ar    1  UNL1        0.0129
     25 N         137.6660  143.0563  156.0166 N.pl3   1  UNL1       -0.2591
     26 H         136.7209  143.1178  155.7480 H       1  UNL1        0.1680
     27 N         138.5971  144.2022  155.7516 N.3     1  UNL1       -0.2069
     28 C         140.0718  144.0360  155.9692 C.3     1  UNL1        0.0918
     29 C         141.0029  145.1818  155.7042 C.3     1  UNL1        0.0191
     30 C         140.4592  146.4938  155.2215 C.3     1  UNL1        0.0030
     31 C         138.9844  146.6600  155.0038 C.3     1  UNL1        0.0191
     32 C         138.0533  145.5142  155.2689 C.3     1  UNL1        0.0918
@<TRIPOS>BOND
     1    18    19    1
     2    19    20   ar
     3    20    21   ar
     4    21    22   ar
     5    22     1    1
     6     1     2   ar
     7     2    10    1
     8    10    11   ar
     9    11    12   ar
    10    12    13   ar
    11    13    14    1
    12    13    15   ar
    13    15    16   ar
    14    16    17    1
    15     2     3   ar
    16     3     4   ar
    17     4     5   ar
    18     5    25    1
    19    25    27    1
    20    27    28    1
    21    28    29    1
    22    29    30    1
    23    30    31    1
    24    31    32    1
    25     5     6   ar
    26     6     7   ar
    27     7     8   ar
    28     8     9   ar
    29    22    23   ar
    30    23    24   ar
    31    24    19   ar
    32     9     1   ar
    33    16    10   ar
    34     9     4   ar
    35    32    27    1
    36    25    26    1
@<TRIPOS>MOLECULE
*****
 32 36 0 0 0
SMALL
GASTEIGER

@<TRIPOS>ATOM
      1 N         141.1200  139.4237  160.2634 N.ar    1  UNL1       -0.2753
      2 C         142.1476  138.5524  160.9228 C.ar    1  UNL1        0.1497
      3 N         142.7956  137.7148  159.8605 N.ar    1  UNL1       -0.2220
      4 C         142.1684  138.0685  158.5446 C.ar    1  UNL1        0.1497
      5 C         142.4066  137.5653  157.1517 C.ar    1  UNL1        0.1643
      6 N         141.6092  138.1182  156.0079 N.ar    1  UNL1       -0.2063
      7 C         140.5736  139.1744  156.2570 C.ar    1  UNL1        0.2015
      8 N         140.3355  139.6776  157.6498 N.ar    1  UNL1       -0.2045
      9 C         141.1329  139.1247  158.7936 C.ar    1  UNL1        0.1711
     10 C         142.4705  138.5237  162.3874 C.ar    1  UNL1        0.0451
     11 C         141.6133  137.7309  163.3290 C.ar    1  UNL1        0.0047
     12 C         141.9362  137.7022  164.7935 C.ar    1  UNL1        0.0115
     13 C         143.1163  138.4664  165.3165 C.ar    1  UNL1        0.0585
     14 CL        143.4392  138.4377  166.7811 Cl      1  UNL1       -0.0822
     15 C         143.9735  139.2592  164.3749 C.ar    1  UNL1        0.0229
     16 C         143.6506  139.2878  162.9104 C.ar    1  UNL1        0.0614
     17 CL        144.5078  140.0807  161.9687 Cl      1  UNL1       -0.0821
     18 CL        137.5794  143.4062  163.0210 Cl      1  UNL1       -0.0822
     19 C         138.4645  142.4106  162.3317 C.ar    1  UNL1        0.0578
     20 C         139.8754  142.7787  161.9796 C.ar    1  UNL1        0.0129
     21 C         140.7605  141.7831  161.2903 C.ar    1  UNL1        0.0185
     22 C         140.2349  140.4194  160.9528 C.ar    1  UNL1        0.0668
     23 C         138.8240  140.0513  161.3048 C.ar    1  UNL1        0.0185
     24 C         137.9388  141.0469  161.9942 C.ar    1  UNL1        0.0129
     25 N         143.4422  136.5090  156.9027 N.pl3   1  UNL1       -0.2591
     26 H         144.3985  136.7418  156.9273 H       1  UNL1        0.1680
     27 N         143.0208  135.0982  156.6163 N.3     1  UNL1       -0.2069
     28 C         141.9364  134.8278  155.6159 C.3     1  UNL1        0.0918
     29 C         141.5149  133.4170  155.3295 C.3     1  UNL1        0.0191
     30 C         142.1779  132.2766  156.0435 C.3     1  UNL1        0.0030
     31 C         143.2624  132.5470  157.0440 C.3     1  UNL1        0.0191
     32 C         143.6838  133.9578  157.3304 C.3     1  UNL1        0.0918
@<TRIPOS>BOND
     1    18    19    1
     2    19    20   ar
     3    20    21   ar
     4    21    22   ar
     5    22     1    1
     6     1     2   ar
     7     2    10    1
     8    10    11   ar
     9    11    12   ar
    10    12    13   ar
    11    13    14    1
    12    13    15   ar
    13    15    16   ar
    14    16    17    1
    15     2     3   ar
    16     3     4   ar
    17     4     5   ar
    18     5    25    1
    19    25    27    1
    20    27    28    1
    21    28    29    1
    22    29    30    1
    23    30    31    1
    24    31    32    1
    25     5     6   ar
    26     6     7   ar
    27     7     8   ar
    28     8     9   ar
    29    22    23   ar
    30    23    24   ar
    31    24    19   ar
    32     9     1   ar
    33    16    10   ar
    34     9     4   ar
    35    32    27    1
    36    25    26    1
@<TRIPOS>MOLECULE
*****
 32 36 0 0 0
SMALL
GASTEIGER

@<TRIPOS>ATOM
      1 N         138.9679  140.7355  160.3222 N.ar    1  UNL1       -0.2753
      2 C         138.4757  142.1343  160.5485 C.ar    1  UNL1        0.1497
      3 N         138.0024  142.6776  159.2330 N.ar    1  UNL1       -0.2220
      4 C         138.2021  141.6146  158.1936 C.ar    1  UNL1        0.1497
      5 C         137.9176  141.5845  156.7211 C.ar    1  UNL1        0.1643
      6 N         138.2298  140.3543  155.9219 N.ar    1  UNL1       -0.2063
      7 C         138.8266  139.1540  156.5951 C.ar    1  UNL1        0.2015
      8 N         139.1110  139.1840  158.0676 N.ar    1  UNL1       -0.2045
      9 C         138.7988  140.4143  158.8668 C.ar    1  UNL1        0.1711
     10 C         138.4596  142.8619  161.8602 C.ar    1  UNL1        0.0451
     11 C         137.5523  142.4015  162.9622 C.ar    1  UNL1        0.0047
     12 C         137.5362  143.1292  164.2738 C.ar    1  UNL1        0.0115
     13 C         138.4276  144.3172  164.4833 C.ar    1  UNL1        0.0585
     14 CL        138.4116  145.0449  165.7949 Cl      1  UNL1       -0.0822
     15 C         139.3350  144.7777  163.3812 C.ar    1  UNL1        0.0229
     16 C         139.3510  144.0500  162.0696 C.ar    1  UNL1        0.0614
     17 CL        140.2585  144.5104  160.9675 Cl      1  UNL1       -0.0821
     18 CL        141.2181  137.0687  164.5045 Cl      1  UNL1       -0.0822
     19 C         140.6556  137.9854  163.4589 C.ar    1  UNL1        0.0578
     20 C         141.5415  138.9954  162.7918 C.ar    1  UNL1        0.0129
     21 C         140.9789  139.9121  161.7463 C.ar    1  UNL1        0.0185
     22 C         139.5305  139.8188  161.3678 C.ar    1  UNL1        0.0668
     23 C         138.6446  138.8088  162.0349 C.ar    1  UNL1        0.0185
     24 C         139.2071  137.8921  163.0804 C.ar    1  UNL1        0.0129
     25 N         137.3208  142.7849  156.0479 N.pl3   1  UNL1       -0.2591
     26 H         137.5066  143.6872  156.3952 H       1  UNL1        0.1680
     27 N         136.4410  142.6104  154.8456 N.3     1  UNL1       -0.2069
     28 C         136.7225  143.3839  153.5916 C.3     1  UNL1        0.0918
     29 C         135.8427  143.2094  152.3894 C.3     1  UNL1        0.0191
     30 C         134.6814  142.2615  152.4410 C.3     1  UNL1        0.0030
     31 C         134.3998  141.4879  153.6951 C.3     1  UNL1        0.0191
     32 C         135.2796  141.6624  154.8974 C.3     1  UNL1        0.0918
@<TRIPOS>BOND
     1    18    19    1
     2    19    20   ar
     3    20    21   ar
     4    21    22   ar
     5    22     1    1
     6     1     2   ar
     7     2    10    1
     8    10    11   ar
     9    11    12   ar
    10    12    13   ar
    11    13    14    1
    12    13    15   ar
    13    15    16   ar
    14    16    17    1
    15     2     3   ar
    16     3     4   ar
    17     4     5   ar
    18     5    25    1
    19    25    27    1
    20    27    28    1
    21    28    29    1
    22    29    30    1
    23    30    31    1
    24    31    32    1
    25     5     6   ar
    26     6     7   ar
    27     7     8   ar
    28     8     9   ar
    29    22    23   ar
    30    23    24   ar
    31    24    19   ar
    32     9     1   ar
    33    16    10   ar
    34     9     4   ar
    35    32    27    1
    36    25    26    1
