@<TRIPOS>MOLECULE
*****
 30 32 0 0 0
SMALL
GASTEIGER

@<TRIPOS>ATOM
      1 N         139.9933  140.9814  167.8039 N.ar    1  UNL1       -0.2465
      2 C         139.3693  139.6577  168.1330 C.ar    1  UNL1        0.1025
      3 C         138.5435  139.2291  166.9564 C.ar    1  UNL1        0.1051
      4 C         138.6572  140.2880  165.8999 C.ar    1  UNL1        0.1578
      5 N         139.5532  141.3709  166.4238 N.ar    1  UNL1       -0.1539
      6 C         142.2907  141.2924  168.9766 C.3     1  UNL1        0.1187
      7 C         143.1958  142.0871  169.8706 C.3     1  UNL1        0.0492
      8 C         142.7087  143.3655  170.4858 C.3     1  UNL1        0.1434
      9 O         141.3165  143.8492  170.2070 O.3     1  UNL1       -0.3516
     10 C         140.4114  143.0545  169.3131 C.3     1  UNL1        0.1674
     11 C         140.8985  141.7761  168.6979 C.3     1  UNL1        0.1488
     12 N         143.2649  138.7356  167.7462 N.1     1  UNL1       -0.1958
     13 C         142.7778  140.0140  168.3614 C.1     1  UNL1        0.0742
     14 C         137.7444  137.9638  166.8540 C.2     1  UNL1        0.2470
     15 N         136.7261  137.6328  167.9045 N.am    1  UNL1       -0.3252
     16 O         137.9635  137.0295  165.7012 O.2     1  UNL1       -0.2702
     17 H         136.5823  138.2460  168.6612 H       1  UNL1        0.1453
     18 H         136.2017  136.8024  167.8373 H       1  UNL1        0.1453
     19 N         137.9918  140.2675  164.5558 N.pl3   1  UNL1       -0.2964
     20 H         137.3356  139.5654  164.3421 H       1  UNL1        0.1537
     21 C         138.3261  141.3167  163.5374 C.ar    1  UNL1        0.0496
     22 C         137.6085  142.6339  163.5541 C.ar    1  UNL1        0.0178
     23 C         137.9429  143.6830  162.5356 C.ar    1  UNL1        0.0384
     24 C         138.9949  143.4152  161.5004 C.ar    1  UNL1        0.1444
     25 C         139.7125  142.0981  161.4837 C.ar    1  UNL1        0.0384
     26 C         139.3781  141.0489  162.5022 C.ar    1  UNL1        0.0178
     27 O         139.3293  144.4644  160.4819 O.3     1  UNL1       -0.4236
     28 C         140.4290  145.4482  160.7519 C.3     1  UNL1        0.5087
     29 F         140.4746  146.1821  162.0593 F       1  UNL1       -0.1550
     30 F         141.4831  145.6981  159.7144 F       1  UNL1       -0.1550
@<TRIPOS>BOND
     1    12    13    3
     2     6    13    1
     3     6     7    1
     4     7     8    1
     5     8     9    1
     6     9    10    1
     7    10    11    1
     8    11     1    1
     9     1     2   ar
    10     2     3   ar
    11     3    14    1
    12    14    15   am
    13    14    16    2
    14     3     4   ar
    15     4    19    1
    16    19    21    1
    17    21    22   ar
    18    22    23   ar
    19    23    24   ar
    20    24    27    1
    21    27    28    1
    22    28    29    1
    23    28    30    1
    24    24    25   ar
    25    25    26   ar
    26     4     5   ar
    27    11     6    1
    28     5     1   ar
    29    26    21   ar
    30    15    17    1
    31    15    18    1
    32    19    20    1
@<TRIPOS>MOLECULE
*****
 30 32 0 0 0
SMALL
GASTEIGER

@<TRIPOS>ATOM
      1 N         142.3932  141.2906  166.7535 N.ar    1  UNL1       -0.2465
      2 C         143.3182  140.3907  165.9888 C.ar    1  UNL1        0.1025
      3 C         143.9454  141.1964  164.8900 C.ar    1  UNL1        0.1051
      4 C         143.4081  142.5943  164.9755 C.ar    1  UNL1        0.1578
      5 N         142.4488  142.6525  166.1272 N.ar    1  UNL1       -0.1539
      6 C         141.9912  141.2833  169.3203 C.3     1  UNL1        0.1187
      7 C         141.1571  140.8903  170.5034 C.3     1  UNL1        0.0492
      8 C         139.8908  140.1116  170.3028 C.3     1  UNL1        0.1434
      9 O         139.4587  139.7259  168.9192 O.3     1  UNL1       -0.3516
     10 C         140.2928  140.1189  167.7361 C.3     1  UNL1        0.1674
     11 C         141.5591  140.8976  167.9366 C.3     1  UNL1        0.1488
     12 N         144.5238  142.8406  169.7213 N.1     1  UNL1       -0.1958
     13 C         143.2575  142.0619  169.5208 C.1     1  UNL1        0.0742
     14 C         144.9360  140.6927  163.8826 C.2     1  UNL1        0.2470
     15 N         144.9409  139.2436  163.4951 N.am    1  UNL1       -0.3252
     16 O         145.9218  141.6381  163.2625 O.2     1  UNL1       -0.2702
     17 H         144.2938  138.6231  163.9020 H       1  UNL1        0.1453
     18 H         145.5910  138.9130  162.8339 H       1  UNL1        0.1453
     19 N         143.7670  143.7339  164.0686 N.pl3   1  UNL1       -0.2964
     20 H         144.6359  144.1862  164.1668 H       1  UNL1        0.1537
     21 C         142.8021  144.1842  163.0122 C.ar    1  UNL1        0.0496
     22 C         141.7031  145.1440  163.3601 C.ar    1  UNL1        0.0178
     23 C         140.7383  145.5943  162.3037 C.ar    1  UNL1        0.0384
     24 C         140.8724  145.0848  160.8992 C.ar    1  UNL1        0.1444
     25 C         141.9713  144.1251  160.5513 C.ar    1  UNL1        0.0384
     26 C         142.9362  143.6748  161.6077 C.ar    1  UNL1        0.0178
     27 O         139.9074  145.5352  159.8427 O.3     1  UNL1       -0.4236
     28 C         140.2867  145.4473  158.3941 C.3     1  UNL1        0.5087
     29 F         139.5029  144.5678  157.4655 F       1  UNL1       -0.1550
     30 F         141.4497  146.2390  157.8739 F       1  UNL1       -0.1550
@<TRIPOS>BOND
     1    12    13    3
     2     6    13    1
     3     6     7    1
     4     7     8    1
     5     8     9    1
     6     9    10    1
     7    10    11    1
     8    11     1    1
     9     1     2   ar
    10     2     3   ar
    11     3    14    1
    12    14    15   am
    13    14    16    2
    14     3     4   ar
    15     4    19    1
    16    19    21    1
    17    21    22   ar
    18    22    23   ar
    19    23    24   ar
    20    24    27    1
    21    27    28    1
    22    28    29    1
    23    28    30    1
    24    24    25   ar
    25    25    26   ar
    26     4     5   ar
    27    11     6    1
    28     5     1   ar
    29    26    21   ar
    30    15    17    1
    31    15    18    1
    32    19    20    1
@<TRIPOS>MOLECULE
*****
 30 32 0 0 0
SMALL
GASTEIGER

@<TRIPOS>ATOM
      1 N         142.6078  141.2517  166.7030 N.ar    1  UNL1       -0.2465
      2 C         143.4227  140.3580  165.8158 C.ar    1  UNL1        0.1025
      3 C         143.9736  141.1924  164.6977 C.ar    1  UNL1        0.1051
      4 C         143.4993  142.6019  164.8939 C.ar    1  UNL1        0.1578
      5 N         142.6551  142.6385  166.1333 N.ar    1  UNL1       -0.1539
      6 C         140.3914  140.6109  167.8977 C.3     1  UNL1        0.1187
      7 C         139.6580  140.1914  169.1371 C.3     1  UNL1        0.0492
      8 C         140.4075  139.9934  170.4213 C.3     1  UNL1        0.1434
      9 O         141.8904  140.2147  170.4660 O.3     1  UNL1       -0.3516
     10 C         142.6238  140.6341  169.2266 C.3     1  UNL1        0.1674
     11 C         141.8743  140.8322  167.9425 C.3     1  UNL1        0.1488
     12 N         138.8925  141.0070  165.3294 N.1     1  UNL1       -0.1958
     13 C         139.6420  140.8089  166.6135 C.1     1  UNL1        0.0742
     14 C         144.8459  140.7033  163.5796 C.2     1  UNL1        0.2470
     15 N         144.7564  139.2757  163.1281 N.am    1  UNL1       -0.3252
     16 O         145.8076  141.6419  162.9131 O.2     1  UNL1       -0.2702
     17 H         144.1252  138.6597  163.5655 H       1  UNL1        0.1453
     18 H         145.3289  138.9547  162.3942 H       1  UNL1        0.1453
     19 N         143.8138  143.7697  164.0066 N.pl3   1  UNL1       -0.2964
     20 H         144.6577  144.2632  164.1231 H       1  UNL1        0.1537
     21 C         142.8426  144.1855  162.9418 C.ar    1  UNL1        0.0496
     22 C         142.9756  143.6399  161.5509 C.ar    1  UNL1        0.0178
     23 C         142.0044  144.0558  160.4861 C.ar    1  UNL1        0.0384
     24 C         140.9002  145.0172  160.8123 C.ar    1  UNL1        0.1444
     25 C         140.7672  145.5627  162.2031 C.ar    1  UNL1        0.0384
     26 C         141.7384  145.1469  163.2679 C.ar    1  UNL1        0.0178
     27 O         139.9289  145.4331  159.7474 O.3     1  UNL1       -0.4236
     28 C         140.3879  145.5709  158.3261 C.3     1  UNL1        0.5087
     29 F         141.7113  146.2092  158.0238 F       1  UNL1       -0.1550
     30 F         139.5236  145.0705  157.2069 F       1  UNL1       -0.1550
@<TRIPOS>BOND
     1    12    13    3
     2     6    13    1
     3     6     7    1
     4     7     8    1
     5     8     9    1
     6     9    10    1
     7    10    11    1
     8    11     1    1
     9     1     2   ar
    10     2     3   ar
    11     3    14    1
    12    14    15   am
    13    14    16    2
    14     3     4   ar
    15     4    19    1
    16    19    21    1
    17    21    22   ar
    18    22    23   ar
    19    23    24   ar
    20    24    27    1
    21    27    28    1
    22    28    29    1
    23    28    30    1
    24    24    25   ar
    25    25    26   ar
    26     4     5   ar
    27    11     6    1
    28     5     1   ar
    29    26    21   ar
    30    15    17    1
    31    15    18    1
    32    19    20    1
@<TRIPOS>MOLECULE
*****
 30 32 0 0 0
SMALL
GASTEIGER

@<TRIPOS>ATOM
      1 N         139.7545  141.1939  166.5726 N.ar    1  UNL1       -0.2465
      2 C         139.8862  142.6301  166.1604 C.ar    1  UNL1        0.1025
      3 C         138.9742  142.8626  164.9924 C.ar    1  UNL1        0.1051
      4 C         138.2789  141.5700  164.6827 C.ar    1  UNL1        0.1578
      5 N         138.7611  140.5387  165.6594 N.ar    1  UNL1       -0.1539
      6 C         141.9228  140.1291  167.5290 C.3     1  UNL1        0.1187
      7 C         142.6557  139.4647  168.6565 C.3     1  UNL1        0.0492
      8 C         141.9532  139.2005  169.9552 C.3     1  UNL1        0.1434
      9 O         140.5178  139.6008  170.1264 O.3     1  UNL1       -0.3516
     10 C         139.7850  140.2652  168.9989 C.3     1  UNL1        0.1674
     11 C         140.4875  140.5294  167.7002 C.3     1  UNL1        0.1488
     12 N         143.3278  140.6574  164.9315 N.1     1  UNL1       -0.1958
     13 C         142.6253  140.3932  166.2302 C.1     1  UNL1        0.0742
     14 C         138.7900  144.1598  164.2622 C.2     1  UNL1        0.2470
     15 N         139.8576  145.2118  164.3210 N.am    1  UNL1       -0.3252
     16 O         137.5381  144.4051  163.4731 O.2     1  UNL1       -0.2702
     17 H         140.6793  145.0509  164.8389 H       1  UNL1        0.1453
     18 H         139.7366  146.0633  163.8418 H       1  UNL1        0.1453
     19 N         137.2772  141.3478  163.5885 N.pl3   1  UNL1       -0.2964
     20 H         136.3200  141.5031  163.7584 H       1  UNL1        0.1537
     21 C         137.7339  140.8889  162.2355 C.ar    1  UNL1        0.0496
     22 C         137.8674  139.4231  161.9462 C.ar    1  UNL1        0.0178
     23 C         138.3242  138.9643  160.5931 C.ar    1  UNL1        0.0384
     24 C         138.6474  139.9712  159.5294 C.ar    1  UNL1        0.1444
     25 C         138.5139  141.4369  159.8186 C.ar    1  UNL1        0.0384
     26 C         138.0572  141.8958  161.1717 C.ar    1  UNL1        0.0178
     27 O         139.1042  139.5124  158.1762 O.3     1  UNL1       -0.4236
     28 C         139.9624  138.2887  158.0495 C.3     1  UNL1        0.5087
     29 F         141.1858  138.1388  158.9043 F       1  UNL1       -0.1550
     30 F         139.5973  137.2149  157.0678 F       1  UNL1       -0.1550
@<TRIPOS>BOND
     1    12    13    3
     2     6    13    1
     3     6     7    1
     4     7     8    1
     5     8     9    1
     6     9    10    1
     7    10    11    1
     8    11     1    1
     9     1     2   ar
    10     2     3   ar
    11     3    14    1
    12    14    15   am
    13    14    16    2
    14     3     4   ar
    15     4    19    1
    16    19    21    1
    17    21    22   ar
    18    22    23   ar
    19    23    24   ar
    20    24    27    1
    21    27    28    1
    22    28    29    1
    23    28    30    1
    24    24    25   ar
    25    25    26   ar
    26     4     5   ar
    27    11     6    1
    28     5     1   ar
    29    26    21   ar
    30    15    17    1
    31    15    18    1
    32    19    20    1
@<TRIPOS>MOLECULE
*****
 30 32 0 0 0
SMALL
GASTEIGER

@<TRIPOS>ATOM
      1 N         139.5221  140.2468  165.8805 N.ar    1  UNL1       -0.2465
      2 C         139.1875  139.1776  164.8831 C.ar    1  UNL1        0.1025
      3 C         138.5707  139.8375  163.6856 C.ar    1  UNL1        0.1051
      4 C         138.5240  141.3145  163.9429 C.ar    1  UNL1        0.1578
      5 N         139.1121  141.5675  165.2995 N.ar    1  UNL1       -0.1539
      6 C         141.6442  139.8870  167.3357 C.3     1  UNL1        0.1187
      7 C         142.2775  139.6731  168.6785 C.3     1  UNL1        0.0492
      8 C         141.4222  139.6050  169.9089 C.3     1  UNL1        0.1434
      9 O         139.9336  139.7508  169.7965 O.3     1  UNL1       -0.3516
     10 C         139.3003  139.9647  168.4538 C.3     1  UNL1        0.1674
     11 C         140.1555  140.0328  167.2234 C.3     1  UNL1        0.1488
     12 N         143.3547  140.0232  164.8749 N.1     1  UNL1       -0.1958
     13 C         142.4994  139.9551  166.1053 C.1     1  UNL1        0.0742
     14 C         138.0857  139.1424  162.4480 C.2     1  UNL1        0.2470
     15 N         138.3384  137.6753  162.2639 N.am    1  UNL1       -0.3252
     16 O         137.3479  139.9143  161.3946 O.2     1  UNL1       -0.2702
     17 H         138.8226  137.1687  162.9553 H       1  UNL1        0.1453
     18 H         138.0201  137.2191  161.4516 H       1  UNL1        0.1453
     19 N         137.9842  142.3558  163.0079 N.pl3   1  UNL1       -0.2964
     20 H         137.0145  142.5191  162.9599 H       1  UNL1        0.1537
     21 C         138.9218  143.1481  162.1458 C.ar    1  UNL1        0.0496
     22 C         139.5671  142.5069  160.9532 C.ar    1  UNL1        0.0178
     23 C         140.5046  143.2993  160.0912 C.ar    1  UNL1        0.0384
     24 C         140.7969  144.7329  160.4218 C.ar    1  UNL1        0.1444
     25 C         140.1516  145.3741  161.6144 C.ar    1  UNL1        0.0384
     26 C         139.2140  144.5818  162.4764 C.ar    1  UNL1        0.0178
     27 O         141.7345  145.5253  159.5598 O.3     1  UNL1       -0.4236
     28 C         141.3954  145.7813  158.1212 C.3     1  UNL1        0.5087
     29 F         142.4670  146.2087  157.1626 F       1  UNL1       -0.1550
     30 F         139.9846  145.6099  157.6412 F       1  UNL1       -0.1550
@<TRIPOS>BOND
     1    12    13    3
     2     6    13    1
     3     6     7    1
     4     7     8    1
     5     8     9    1
     6     9    10    1
     7    10    11    1
     8    11     1    1
     9     1     2   ar
    10     2     3   ar
    11     3    14    1
    12    14    15   am
    13    14    16    2
    14     3     4   ar
    15     4    19    1
    16    19    21    1
    17    21    22   ar
    18    22    23   ar
    19    23    24   ar
    20    24    27    1
    21    27    28    1
    22    28    29    1
    23    28    30    1
    24    24    25   ar
    25    25    26   ar
    26     4     5   ar
    27    11     6    1
    28     5     1   ar
    29    26    21   ar
    30    15    17    1
    31    15    18    1
    32    19    20    1
@<TRIPOS>MOLECULE
*****
 30 32 0 0 0
SMALL
GASTEIGER

@<TRIPOS>ATOM
      1 N         140.0304  141.0497  167.7668 N.ar    1  UNL1       -0.2465
      2 C         139.4111  139.7172  168.0683 C.ar    1  UNL1        0.1025
      3 C         138.5705  139.3198  166.8912 C.ar    1  UNL1        0.1051
      4 C         138.6703  140.4067  165.8623 C.ar    1  UNL1        0.1578
      5 N         139.5725  141.4758  166.4034 N.ar    1  UNL1       -0.1539
      6 C         142.3360  141.3204  168.9334 C.3     1  UNL1        0.1187
      7 C         143.2523  142.0915  169.8366 C.3     1  UNL1        0.0492
      8 C         142.7791  143.3629  170.4767 C.3     1  UNL1        0.1434
      9 O         141.3898  143.8632  170.2134 O.3     1  UNL1       -0.3516
     10 C         140.4736  143.0922  169.3102 C.3     1  UNL1        0.1674
     11 C         140.9467  141.8208  168.6701 C.3     1  UNL1        0.1488
     12 N         143.2823  138.7776  167.6533 N.1     1  UNL1       -0.1958
     13 C         142.8092  140.0490  168.2933 C.1     1  UNL1        0.0742
     14 C         137.7706  138.0571  166.7652 C.2     1  UNL1        0.2470
     15 N         138.1216  137.0489  165.7115 N.am    1  UNL1       -0.3252
     16 O         136.6197  137.8026  167.6930 O.2     1  UNL1       -0.2702
     17 H         138.8769  137.2159  165.1026 H       1  UNL1        0.1453
     18 H         137.5965  136.2202  165.6288 H       1  UNL1        0.1453
     19 N         137.9876  140.4218  164.5267 N.pl3   1  UNL1       -0.2964
     20 H         137.0665  140.7605  164.4485 H       1  UNL1        0.1537
     21 C         138.7084  139.9209  163.3103 C.ar    1  UNL1        0.0496
     22 C         139.8697  140.6917  162.7561 C.ar    1  UNL1        0.0178
     23 C         140.5904  140.1907  161.5398 C.ar    1  UNL1        0.0384
     24 C         140.1498  138.9190  160.8776 C.ar    1  UNL1        0.1444
     25 C         138.9885  138.1482  161.4318 C.ar    1  UNL1        0.0384
     26 C         138.2678  138.6491  162.6482 C.ar    1  UNL1        0.0178
     27 O         140.8706  138.4179  159.6612 O.3     1  UNL1       -0.4236
     28 C         140.1991  138.4616  158.3206 C.3     1  UNL1        0.5087
     29 F         138.9434  139.2610  158.1363 F       1  UNL1       -0.1550
     30 F         140.7835  137.7057  157.1642 F       1  UNL1       -0.1550
@<TRIPOS>BOND
     1    12    13    3
     2     6    13    1
     3     6     7    1
     4     7     8    1
     5     8     9    1
     6     9    10    1
     7    10    11    1
     8    11     1    1
     9     1     2   ar
    10     2     3   ar
    11     3    14    1
    12    14    15   am
    13    14    16    2
    14     3     4   ar
    15     4    19    1
    16    19    21    1
    17    21    22   ar
    18    22    23   ar
    19    23    24   ar
    20    24    27    1
    21    27    28    1
    22    28    29    1
    23    28    30    1
    24    24    25   ar
    25    25    26   ar
    26     4     5   ar
    27    11     6    1
    28     5     1   ar
    29    26    21   ar
    30    15    17    1
    31    15    18    1
    32    19    20    1
@<TRIPOS>MOLECULE
*****
 30 32 0 0 0
SMALL
GASTEIGER

@<TRIPOS>ATOM
      1 N         141.3495  141.6078  161.3775 N.ar    1  UNL1       -0.2465
      2 C         140.4703  140.4228  161.1080 C.ar    1  UNL1        0.1025
      3 C         140.8030  139.3605  162.1134 C.ar    1  UNL1        0.1051
      4 C         141.8879  139.8890  163.0044 C.ar    1  UNL1        0.1578
      5 N         142.2256  141.2779  162.5495 N.ar    1  UNL1       -0.1539
      6 C         140.2264  143.8731  160.7799 C.3     1  UNL1        0.1187
      7 C         140.2291  145.1618  160.0122 C.3     1  UNL1        0.0492
      8 C         141.3575  145.4738  159.0745 C.3     1  UNL1        0.1434
      9 O         142.4832  144.4972  158.9044 O.3     1  UNL1       -0.3516
     10 C         142.4805  143.2085  159.6721 C.3     1  UNL1        0.1674
     11 C         141.3521  142.8965  160.6098 C.3     1  UNL1        0.1488
     12 N         137.9696  143.2491  162.6554 N.1     1  UNL1       -0.1958
     13 C         139.0980  143.5611  161.7176 C.1     1  UNL1        0.0742
     14 C         140.1632  138.0073  162.2108 C.2     1  UNL1        0.2470
     15 N         138.8505  137.7477  161.5329 N.am    1  UNL1       -0.3252
     16 O         140.8361  136.9136  162.9860 O.2     1  UNL1       -0.2702
     17 H         138.4089  138.4655  161.0241 H       1  UNL1        0.1453
     18 H         138.4307  136.8595  161.5969 H       1  UNL1        0.1453
     19 N         142.5234  139.1572  164.1491 N.pl3   1  UNL1       -0.2964
     20 H         143.2627  138.5289  163.9820 H       1  UNL1        0.1537
     21 C         142.0325  139.3826  165.5484 C.ar    1  UNL1        0.0496
     22 C         142.9798  139.2579  166.7048 C.ar    1  UNL1        0.0178
     23 C         142.4888  139.4833  168.1041 C.ar    1  UNL1        0.0384
     24 C         141.0507  139.8334  168.3471 C.ar    1  UNL1        0.1444
     25 C         140.1035  139.9581  167.1908 C.ar    1  UNL1        0.0384
     26 C         140.5944  139.7327  165.7914 C.ar    1  UNL1        0.0178
     27 O         140.5597  140.0589  169.7465 O.3     1  UNL1       -0.4236
     28 C         139.3255  140.8772  169.9856 C.3     1  UNL1        0.5087
     29 F         137.9966  140.2005  170.1473 F       1  UNL1       -0.1550
     30 F         139.4201  142.3722  170.0629 F       1  UNL1       -0.1550
@<TRIPOS>BOND
     1    12    13    3
     2     6    13    1
     3     6     7    1
     4     7     8    1
     5     8     9    1
     6     9    10    1
     7    10    11    1
     8    11     1    1
     9     1     2   ar
    10     2     3   ar
    11     3    14    1
    12    14    15   am
    13    14    16    2
    14     3     4   ar
    15     4    19    1
    16    19    21    1
    17    21    22   ar
    18    22    23   ar
    19    23    24   ar
    20    24    27    1
    21    27    28    1
    22    28    29    1
    23    28    30    1
    24    24    25   ar
    25    25    26   ar
    26     4     5   ar
    27    11     6    1
    28     5     1   ar
    29    26    21   ar
    30    15    17    1
    31    15    18    1
    32    19    20    1
@<TRIPOS>MOLECULE
*****
 30 32 0 0 0
SMALL
GASTEIGER

@<TRIPOS>ATOM
      1 N         140.5643  141.6128  166.9872 N.ar    1  UNL1       -0.2465
      2 C         140.7941  142.9494  166.3463 C.ar    1  UNL1        0.1025
      3 C         139.7517  143.1396  165.2846 C.ar    1  UNL1        0.1051
      4 C         138.8777  141.9206  165.2692 C.ar    1  UNL1        0.1578
      5 N         139.3800  140.9770  166.3215 N.ar    1  UNL1       -0.1539
      6 C         141.4599  141.7140  169.4239 C.3     1  UNL1        0.1187
      7 C         142.2719  141.1178  170.5353 C.3     1  UNL1        0.0492
      8 C         143.0004  139.8242  170.3213 C.3     1  UNL1        0.1434
      9 O         142.9169  139.1268  168.9960 O.3     1  UNL1       -0.3516
     10 C         142.1049  139.7229  167.8846 C.3     1  UNL1        0.1674
     11 C         141.3764  141.0166  168.0986 C.3     1  UNL1        0.1488
     12 N         140.0029  144.3013  169.8519 N.1     1  UNL1       -0.1958
     13 C         140.7314  143.0077  169.6379 C.1     1  UNL1        0.0742
     14 C         139.6085  144.3385  164.3944 C.2     1  UNL1        0.2470
     15 N         140.8156  145.1513  164.0310 N.am    1  UNL1       -0.3252
     16 O         138.2581  144.7244  163.8676 O.2     1  UNL1       -0.2702
     17 H         141.7019  144.8981  164.3768 H       1  UNL1        0.1453
     18 H         140.7216  145.9382  163.4468 H       1  UNL1        0.1453
     19 N         137.7071  141.6864  164.3611 N.pl3   1  UNL1       -0.2964
     20 H         136.7993  141.9274  164.6561 H       1  UNL1        0.1537
     21 C         137.9197  141.0850  163.0035 C.ar    1  UNL1        0.0496
     22 C         138.0006  139.5953  162.8473 C.ar    1  UNL1        0.0178
     23 C         138.2131  138.9940  161.4897 C.ar    1  UNL1        0.0384
     24 C         138.3448  139.8823  160.2883 C.ar    1  UNL1        0.1444
     25 C         138.2639  141.3718  160.4444 C.ar    1  UNL1        0.0384
     26 C         138.0513  141.9732  161.8020 C.ar    1  UNL1        0.0178
     27 O         138.5574  139.2809  158.9306 O.3     1  UNL1       -0.4236
     28 C         139.8115  138.5113  158.6392 C.3     1  UNL1        0.5087
     29 F         141.0300  138.7128  159.4904 F       1  UNL1       -0.1550
     30 F         139.8472  137.5402  157.4965 F       1  UNL1       -0.1550
@<TRIPOS>BOND
     1    12    13    3
     2     6    13    1
     3     6     7    1
     4     7     8    1
     5     8     9    1
     6     9    10    1
     7    10    11    1
     8    11     1    1
     9     1     2   ar
    10     2     3   ar
    11     3    14    1
    12    14    15   am
    13    14    16    2
    14     3     4   ar
    15     4    19    1
    16    19    21    1
    17    21    22   ar
    18    22    23   ar
    19    23    24   ar
    20    24    27    1
    21    27    28    1
    22    28    29    1
    23    28    30    1
    24    24    25   ar
    25    25    26   ar
    26     4     5   ar
    27    11     6    1
    28     5     1   ar
    29    26    21   ar
    30    15    17    1
    31    15    18    1
    32    19    20    1
@<TRIPOS>MOLECULE
*****
 30 32 0 0 0
SMALL
GASTEIGER

@<TRIPOS>ATOM
      1 N         140.3878  143.0545  165.7672 N.ar    1  UNL1       -0.2465
      2 C         139.2550  143.6245  164.9661 C.ar    1  UNL1        0.1025
      3 C         139.8396  144.3934  163.8185 C.ar    1  UNL1        0.1051
      4 C         141.3338  144.2985  163.9102 C.ar    1  UNL1        0.1578
      5 N         141.6726  143.4711  165.1146 N.ar    1  UNL1       -0.1539
      6 C         139.7681  140.8014  166.9027 C.3     1  UNL1        0.1187
      7 C         139.6389  139.9622  168.1392 C.3     1  UNL1        0.0492
      8 C         140.0003  140.5369  169.4768 C.3     1  UNL1        0.1434
      9 O         140.4908  141.9508  169.5778 O.3     1  UNL1       -0.3516
     10 C         140.6200  142.7900  168.3413 C.3     1  UNL1        0.1674
     11 C         140.2586  142.2153  167.0037 C.3     1  UNL1        0.1488
     12 N         139.0454  139.6520  164.2275 N.1     1  UNL1       -0.1958
     13 C         139.4067  140.2267  165.5651 C.1     1  UNL1        0.0742
     14 C         139.0658  145.1281  162.7642 C.2     1  UNL1        0.2470
     15 N         137.6539  144.7276  162.4541 N.am    1  UNL1       -0.3252
     16 O         139.7040  146.2633  162.0199 O.2     1  UNL1       -0.2702
     17 H         137.2351  143.9825  162.9426 H       1  UNL1        0.1453
     18 H         137.1461  145.2098  161.7621 H       1  UNL1        0.1453
     19 N         142.3166  144.9217  162.9638 N.pl3   1  UNL1       -0.2964
     20 H         142.5896  145.8598  163.0848 H       1  UNL1        0.1537
     21 C         142.8834  144.1156  161.8329 C.ar    1  UNL1        0.0496
     22 C         142.1347  144.0113  160.5373 C.ar    1  UNL1        0.0178
     23 C         142.7016  143.2051  159.4065 C.ar    1  UNL1        0.0384
     24 C         144.0170  142.5033  159.5713 C.ar    1  UNL1        0.1444
     25 C         144.7655  142.6077  160.8668 C.ar    1  UNL1        0.0384
     26 C         144.1988  143.4138  161.9977 C.ar    1  UNL1        0.0178
     27 O         144.5838  141.6972  158.4404 O.3     1  UNL1       -0.4236
     28 C         145.5329  142.3328  157.4681 C.3     1  UNL1        0.5087
     29 F         146.7884  142.9869  157.9642 F       1  UNL1       -0.1550
     30 F         145.2266  142.3144  155.9999 F       1  UNL1       -0.1550
@<TRIPOS>BOND
     1    12    13    3
     2     6    13    1
     3     6     7    1
     4     7     8    1
     5     8     9    1
     6     9    10    1
     7    10    11    1
     8    11     1    1
     9     1     2   ar
    10     2     3   ar
    11     3    14    1
    12    14    15   am
    13    14    16    2
    14     3     4   ar
    15     4    19    1
    16    19    21    1
    17    21    22   ar
    18    22    23   ar
    19    23    24   ar
    20    24    27    1
    21    27    28    1
    22    28    29    1
    23    28    30    1
    24    24    25   ar
    25    25    26   ar
    26     4     5   ar
    27    11     6    1
    28     5     1   ar
    29    26    21   ar
    30    15    17    1
    31    15    18    1
    32    19    20    1
