@<TRIPOS>MOLECULE
*****
 27 30 0 0 0
SMALL
GASTEIGER

@<TRIPOS>ATOM
      1 O         137.8011  140.1087  157.0401 O.3     1  UNL1       -0.4700
      2 C         137.9427  140.8522  158.3351 C.ar    1  UNL1        0.1578
      3 C         137.7953  140.1239  159.6381 C.ar    1  UNL1        0.0401
      4 C         137.9369  140.8674  160.9331 C.ar    1  UNL1        0.0223
      5 C         138.2258  142.3393  160.9252 C.ar    1  UNL1        0.0815
      6 N         138.3732  143.0677  159.6222 N.ar    1  UNL1       -0.2407
      7 C         138.2316  142.3242  158.3272 C.ar    1  UNL1        0.1356
      8 C         138.3674  143.0828  162.2202 C.ar    1  UNL1        0.0178
      9 C         139.2983  144.2552  162.3140 C.ar    1  UNL1        0.0038
     10 C         139.4398  144.9987  163.6091 C.ar    1  UNL1        0.0297
     11 C         138.6504  144.5698  164.8103 C.ar    1  UNL1        0.1401
     12 F         138.7920  145.3133  166.1053 F       1  UNL1       -0.2042
     13 C         137.7195  143.3974  164.7165 C.ar    1  UNL1        0.0297
     14 C         137.5780  142.6539  163.4215 C.ar    1  UNL1        0.0038
     15 C         136.9772  140.6883  155.9287 C.3     1  UNL1        0.2487
     16 C         130.9747  139.2780  157.5833 C.ar    1  UNL1        0.3976
     17 C         131.0404  140.2179  156.4162 C.ar    1  UNL1        0.1779
     18 N         132.4858  140.4806  156.1133 N.ar    1  UNL1       -0.2749
     19 C         133.3135  139.7030  157.0933 C.ar    1  UNL1        0.3058
     20 N         132.3796  138.9597  158.0018 N.ar    1  UNL1       -0.1275
     21 O         134.8106  139.7722  157.0317 O.3     1  UNL1       -0.4475
     22 C         135.4800  140.6191  155.9902 C.3     1  UNL1        0.2143
     23 C         134.6523  141.3967  155.0103 C.3     1  UNL1        0.0722
     24 C         133.1552  141.3275  155.0719 C.3     1  UNL1        0.1146
     25 O         129.1757  137.4165  157.8034 O.2     1  UNL1        0.0432
     26 N         129.7238  138.7491  158.2202 N.pl3   1  UNL1        0.1030
     27 O         129.0211  139.5528  159.2738 O.co2   1  UNL1       -0.5746
@<TRIPOS>UNITY_ATOM_ATTR
26 1
charge 1
27 1
charge -1
@<TRIPOS>BOND
     1    25    26    2
     2    26    27    1
     3    26    16    1
     4    16    17   ar
     5    17    18   ar
     6    18    19   ar
     7    19    20   ar
     8    19    21    1
     9    21    22    1
    10    22    15    1
    11    15     1    1
    12     1     2    1
    13     2     3   ar
    14     3     4   ar
    15     4     5   ar
    16     5     8    1
    17     8     9   ar
    18     9    10   ar
    19    10    11   ar
    20    11    12    1
    21    11    13   ar
    22    13    14   ar
    23     5     6   ar
    24     6     7   ar
    25    22    23    1
    26    23    24    1
    27    20    16   ar
    28     7     2   ar
    29    24    18    1
    30    14     8   ar
@<TRIPOS>MOLECULE
*****
 27 30 0 0 0
SMALL
GASTEIGER

@<TRIPOS>ATOM
      1 O         138.8591  137.4206  163.8446 O.3     1  UNL1       -0.4700
      2 C         139.4733  138.3302  164.8669 C.ar    1  UNL1        0.1578
      3 C         138.6080  139.2765  165.6453 C.ar    1  UNL1        0.0401
      4 C         139.2223  140.1862  166.6677 C.ar    1  UNL1        0.0223
      5 C         140.7019  140.1496  166.9116 C.ar    1  UNL1        0.0815
      6 N         141.5672  139.2034  166.1332 N.ar    1  UNL1       -0.2407
      7 C         140.9530  138.2937  165.1109 C.ar    1  UNL1        0.1356
      8 C         141.3161  141.0593  167.9339 C.ar    1  UNL1        0.0178
      9 C         140.5273  142.2104  168.4840 C.ar    1  UNL1        0.0038
     10 C         141.1416  143.1201  169.5064 C.ar    1  UNL1        0.0297
     11 C         142.5447  142.8787  169.9785 C.ar    1  UNL1        0.1401
     12 F         143.1589  143.7884  171.0008 F       1  UNL1       -0.2042
     13 C         143.3336  141.7276  169.4284 C.ar    1  UNL1        0.0297
     14 C         142.7193  140.8179  168.4061 C.ar    1  UNL1        0.0038
     15 C         138.4713  137.9580  162.4989 C.3     1  UNL1        0.2487
     16 C         140.3902  143.6992  160.4710 C.ar    1  UNL1        0.3976
     17 C         141.3730  142.6166  160.1363 C.ar    1  UNL1        0.1779
     18 N         140.8275  141.3189  160.6543 N.ar    1  UNL1       -0.2749
     19 C         139.5075  141.5995  161.3092 C.ar    1  UNL1        0.3058
     20 N         139.2372  143.0706  161.1958 N.ar    1  UNL1       -0.1275
     21 O         138.7221  140.4792  161.9240 O.3     1  UNL1       -0.4475
     22 C         139.2567  139.0783  161.8840 C.3     1  UNL1        0.2143
     23 C         140.5767  138.7977  161.2292 C.3     1  UNL1        0.0722
     24 C         141.3621  139.9180  160.6143 C.3     1  UNL1        0.1146
     25 O         139.5653  146.1521  160.7003 O.2     1  UNL1        0.0432
     26 N         140.5350  145.1549  160.1390 N.pl3   1  UNL1        0.1030
     27 O         141.6495  145.6132  159.2459 O.co2   1  UNL1       -0.5746
@<TRIPOS>UNITY_ATOM_ATTR
26 1
charge 1
27 1
charge -1
@<TRIPOS>BOND
     1    25    26    2
     2    26    27    1
     3    26    16    1
     4    16    17   ar
     5    17    18   ar
     6    18    19   ar
     7    19    20   ar
     8    19    21    1
     9    21    22    1
    10    22    15    1
    11    15     1    1
    12     1     2    1
    13     2     3   ar
    14     3     4   ar
    15     4     5   ar
    16     5     8    1
    17     8     9   ar
    18     9    10   ar
    19    10    11   ar
    20    11    12    1
    21    11    13   ar
    22    13    14   ar
    23     5     6   ar
    24     6     7   ar
    25    22    23    1
    26    23    24    1
    27    20    16   ar
    28     7     2   ar
    29    24    18    1
    30    14     8   ar
@<TRIPOS>MOLECULE
*****
 27 30 0 0 0
SMALL
GASTEIGER

@<TRIPOS>ATOM
      1 O         143.7404  138.0825  161.7460 O.3     1  UNL1       -0.4700
      2 C         143.2539  138.4200  163.1241 C.ar    1  UNL1        0.1578
      3 C         141.8685  138.0304  163.5468 C.ar    1  UNL1        0.0401
      4 C         141.3821  138.3680  164.9251 C.ar    1  UNL1        0.0223
      5 C         142.2811  139.0951  165.8806 C.ar    1  UNL1        0.0815
      6 N         143.6666  139.4847  165.4579 N.ar    1  UNL1       -0.2407
      7 C         144.1530  139.1472  164.0797 C.ar    1  UNL1        0.1356
      8 C         141.7947  139.4325  167.2588 C.ar    1  UNL1        0.0178
      9 C         140.4043  139.9602  167.4551 C.ar    1  UNL1        0.0038
     10 C         139.9179  140.2977  168.8334 C.ar    1  UNL1        0.0297
     11 C         140.8218  140.1075  170.0152 C.ar    1  UNL1        0.1401
     12 F         140.3354  140.4450  171.3934 F       1  UNL1       -0.2042
     13 C         142.2122  139.5799  169.8189 C.ar    1  UNL1        0.0297
     14 C         142.6986  139.2424  168.4407 C.ar    1  UNL1        0.0038
     15 C         144.0141  139.1776  160.7581 C.3     1  UNL1        0.2487
     16 C         140.2791  144.2651  161.7193 C.ar    1  UNL1        0.3976
     17 C         141.7382  144.6057  161.7884 C.ar    1  UNL1        0.1779
     18 N         142.5197  143.3476  161.5503 N.ar    1  UNL1       -0.2749
     19 C         141.5435  142.2295  161.3341 C.ar    1  UNL1        0.3058
     20 N         140.1587  142.7965  161.4385 N.ar    1  UNL1       -0.1275
     21 O         142.0416  140.8395  161.0700 O.3     1  UNL1       -0.4475
     22 C         143.5159  140.5677  161.0222 C.3     1  UNL1        0.2143
     23 C         144.4922  141.6858  161.2384 C.3     1  UNL1        0.0722
     24 C         143.9940  143.0758  161.5024 C.3     1  UNL1        0.1146
     25 O         137.8892  144.7811  162.5980 O.2     1  UNL1        0.0432
     26 N         139.1402  145.2246  161.8994 N.pl3   1  UNL1        0.1030
     27 O         139.2524  146.6276  161.3808 O.co2   1  UNL1       -0.5746
@<TRIPOS>UNITY_ATOM_ATTR
26 1
charge 1
27 1
charge -1
@<TRIPOS>BOND
     1    25    26    2
     2    26    27    1
     3    26    16    1
     4    16    17   ar
     5    17    18   ar
     6    18    19   ar
     7    19    20   ar
     8    19    21    1
     9    21    22    1
    10    22    15    1
    11    15     1    1
    12     1     2    1
    13     2     3   ar
    14     3     4   ar
    15     4     5   ar
    16     5     8    1
    17     8     9   ar
    18     9    10   ar
    19    10    11   ar
    20    11    12    1
    21    11    13   ar
    22    13    14   ar
    23     5     6   ar
    24     6     7   ar
    25    22    23    1
    26    23    24    1
    27    20    16   ar
    28     7     2   ar
    29    24    18    1
    30    14     8   ar
@<TRIPOS>MOLECULE
*****
 27 30 0 0 0
SMALL
GASTEIGER

@<TRIPOS>ATOM
      1 O         141.0731  137.0411  162.8591 O.3     1  UNL1       -0.4700
      2 C         140.8513  137.9162  164.0570 C.ar    1  UNL1        0.1578
      3 C         139.4863  138.0150  164.6711 C.ar    1  UNL1        0.0401
      4 C         139.2645  138.8901  165.8691 C.ar    1  UNL1        0.0223
      5 C         140.4076  139.6663  166.4529 C.ar    1  UNL1        0.0815
      6 N         141.7725  139.5674  165.8387 N.ar    1  UNL1       -0.2407
      7 C         141.9944  138.6924  164.6408 C.ar    1  UNL1        0.1356
      8 C         140.1858  140.5413  167.6508 C.ar    1  UNL1        0.0178
      9 C         140.7454  141.9328  167.6772 C.ar    1  UNL1        0.0038
     10 C         140.5236  142.8078  168.8752 C.ar    1  UNL1        0.0297
     11 C         139.7420  142.2914  170.0467 C.ar    1  UNL1        0.1401
     12 F         139.5202  143.1665  171.2446 F       1  UNL1       -0.2042
     13 C         139.1824  140.9000  170.0203 C.ar    1  UNL1        0.0297
     14 C         139.4042  140.0250  168.8224 C.ar    1  UNL1        0.0038
     15 C         141.5482  137.6417  161.5692 C.3     1  UNL1        0.2487
     16 C         140.5262  143.7558  160.0430 C.ar    1  UNL1        0.3976
     17 C         139.3773  142.8709  159.6594 C.ar    1  UNL1        0.1779
     18 N         139.7199  141.4666  160.0602 N.ar    1  UNL1       -0.2749
     19 C         141.0805  141.4837  160.6916 C.ar    1  UNL1        0.3058
     20 N         141.5788  142.8985  160.6809 N.ar    1  UNL1       -0.1275
     21 O         141.6899  140.2087  161.1945 O.3     1  UNL1       -0.4475
     22 C         140.9388  138.9167  161.0662 C.3     1  UNL1        0.2143
     23 C         139.5782  138.8997  160.4349 C.3     1  UNL1        0.0722
     24 C         138.9688  140.1747  159.9319 C.3     1  UNL1        0.1146
     25 O         141.6864  145.8102  158.9553 O.2     1  UNL1        0.0432
     26 N         140.6080  145.2379  159.8267 N.pl3   1  UNL1        0.1030
     27 O         139.6114  146.1476  160.4818 O.co2   1  UNL1       -0.5746
@<TRIPOS>UNITY_ATOM_ATTR
26 1
charge 1
27 1
charge -1
@<TRIPOS>BOND
     1    25    26    2
     2    26    27    1
     3    26    16    1
     4    16    17   ar
     5    17    18   ar
     6    18    19   ar
     7    19    20   ar
     8    19    21    1
     9    21    22    1
    10    22    15    1
    11    15     1    1
    12     1     2    1
    13     2     3   ar
    14     3     4   ar
    15     4     5   ar
    16     5     8    1
    17     8     9   ar
    18     9    10   ar
    19    10    11   ar
    20    11    12    1
    21    11    13   ar
    22    13    14   ar
    23     5     6   ar
    24     6     7   ar
    25    22    23    1
    26    23    24    1
    27    20    16   ar
    28     7     2   ar
    29    24    18    1
    30    14     8   ar
@<TRIPOS>MOLECULE
*****
 27 30 0 0 0
SMALL
GASTEIGER

@<TRIPOS>ATOM
      1 O         137.7740  139.4959  163.3335 O.3     1  UNL1       -0.4700
      2 C         138.5719  140.0964  164.4527 C.ar    1  UNL1        0.1578
      3 C         138.7190  139.3573  165.7496 C.ar    1  UNL1        0.0401
      4 C         139.5171  139.9579  166.8688 C.ar    1  UNL1        0.0223
      5 C         140.1679  141.2975  166.6911 C.ar    1  UNL1        0.0815
      6 N         140.0208  142.0367  165.3941 N.ar    1  UNL1       -0.2407
      7 C         139.2229  141.4361  164.2750 C.ar    1  UNL1        0.1356
      8 C         140.9659  141.8980  167.8102 C.ar    1  UNL1        0.0178
      9 C         140.3188  142.8628  168.7591 C.ar    1  UNL1        0.0038
     10 C         141.1168  143.4634  169.8784 C.ar    1  UNL1        0.0297
     11 C         142.5619  143.0991  170.0486 C.ar    1  UNL1        0.1401
     12 F         143.3599  143.6996  171.1678 F       1  UNL1       -0.2042
     13 C         143.2090  142.1343  169.0997 C.ar    1  UNL1        0.0297
     14 C         142.4111  141.5338  167.9805 C.ar    1  UNL1        0.0038
     15 C         138.3648  138.4024  162.4938 C.3     1  UNL1        0.2487
     16 C         143.4039  140.2107  159.0159 C.ar    1  UNL1        0.3976
     17 C         143.7652  139.2002  160.0639 C.ar    1  UNL1        0.1779
     18 N         142.5172  138.8472  160.8174 N.ar    1  UNL1       -0.2749
     19 C         141.3844  139.6395  160.2351 C.ar    1  UNL1        0.3058
     20 N         141.9325  140.4822  159.1217 N.ar    1  UNL1       -0.1275
     21 O         140.0003  139.4912  160.7938 O.3     1  UNL1       -0.4475
     22 C         139.7490  138.5507  161.9349 C.3     1  UNL1        0.2143
     23 C         140.8818  137.7584  162.5173 C.3     1  UNL1        0.0722
     24 C         142.2658  137.9066  161.9585 C.3     1  UNL1        0.1146
     25 O         145.0472  139.9886  157.0159 O.2     1  UNL1        0.0432
     26 N         144.3481  140.8393  158.0345 N.pl3   1  UNL1        0.1030
     27 O         144.5933  142.3186  158.0716 O.co2   1  UNL1       -0.5746
@<TRIPOS>UNITY_ATOM_ATTR
26 1
charge 1
27 1
charge -1
@<TRIPOS>BOND
     1    25    26    2
     2    26    27    1
     3    26    16    1
     4    16    17   ar
     5    17    18   ar
     6    18    19   ar
     7    19    20   ar
     8    19    21    1
     9    21    22    1
    10    22    15    1
    11    15     1    1
    12     1     2    1
    13     2     3   ar
    14     3     4   ar
    15     4     5   ar
    16     5     8    1
    17     8     9   ar
    18     9    10   ar
    19    10    11   ar
    20    11    12    1
    21    11    13   ar
    22    13    14   ar
    23     5     6   ar
    24     6     7   ar
    25    22    23    1
    26    23    24    1
    27    20    16   ar
    28     7     2   ar
    29    24    18    1
    30    14     8   ar
@<TRIPOS>MOLECULE
*****
 27 30 0 0 0
SMALL
GASTEIGER

@<TRIPOS>ATOM
      1 O         141.2413  137.2533  162.5231 O.3     1  UNL1       -0.4700
      2 C         141.0090  138.0798  163.7531 C.ar    1  UNL1        0.1578
      3 C         142.1532  138.3998  164.6688 C.ar    1  UNL1        0.0401
      4 C         141.9208  139.2264  165.8988 C.ar    1  UNL1        0.0223
      5 C         140.5443  139.7329  166.2130 C.ar    1  UNL1        0.0815
      6 N         139.4002  139.4128  165.2974 N.ar    1  UNL1       -0.2407
      7 C         139.6325  138.5863  164.0674 C.ar    1  UNL1        0.1356
      8 C         140.3120  140.5594  167.4430 C.ar    1  UNL1        0.0178
      9 C         140.8814  141.9441  167.5347 C.ar    1  UNL1        0.0038
     10 C         140.6491  142.7706  168.7648 C.ar    1  UNL1        0.0297
     11 C         139.8474  142.2124  169.9030 C.ar    1  UNL1        0.1401
     12 F         139.6151  143.0389  171.1330 F       1  UNL1       -0.2042
     13 C         139.2780  140.8277  169.8113 C.ar    1  UNL1        0.0297
     14 C         139.5103  140.0012  168.5813 C.ar    1  UNL1        0.0038
     15 C         142.0669  137.8005  161.3966 C.3     1  UNL1        0.2487
     16 C         140.8059  143.9595  160.2859 C.ar    1  UNL1        0.3976
     17 C         142.2545  143.7185  160.5916 C.ar    1  UNL1        0.1779
     18 N         142.4388  142.2498  160.8347 N.ar    1  UNL1       -0.2749
     19 C         141.1041  141.5832  160.6791 C.ar    1  UNL1        0.3058
     20 N         140.0949  142.6398  160.3400 N.ar    1  UNL1       -0.1275
     21 O         140.9801  140.1001  160.8664 O.3     1  UNL1       -0.4475
     22 C         142.1908  139.2837  161.2093 C.3     1  UNL1        0.2143
     23 C         143.5255  139.9503  161.3648 C.3     1  UNL1        0.0722
     24 C         143.6495  141.4334  161.1775 C.3     1  UNL1        0.1146
     25 O         140.2047  145.8241  158.5795 O.2     1  UNL1        0.0432
     26 N         140.1784  145.2872  159.9798 N.pl3   1  UNL1        0.1030
     27 O         139.5247  146.0779  161.0740 O.co2   1  UNL1       -0.5746
@<TRIPOS>UNITY_ATOM_ATTR
26 1
charge 1
27 1
charge -1
@<TRIPOS>BOND
     1    25    26    2
     2    26    27    1
     3    26    16    1
     4    16    17   ar
     5    17    18   ar
     6    18    19   ar
     7    19    20   ar
     8    19    21    1
     9    21    22    1
    10    22    15    1
    11    15     1    1
    12     1     2    1
    13     2     3   ar
    14     3     4   ar
    15     4     5   ar
    16     5     8    1
    17     8     9   ar
    18     9    10   ar
    19    10    11   ar
    20    11    12    1
    21    11    13   ar
    22    13    14   ar
    23     5     6   ar
    24     6     7   ar
    25    22    23    1
    26    23    24    1
    27    20    16   ar
    28     7     2   ar
    29    24    18    1
    30    14     8   ar
@<TRIPOS>MOLECULE
*****
 27 30 0 0 0
SMALL
GASTEIGER

@<TRIPOS>ATOM
      1 O         137.7631  144.0746  163.5780 O.3     1  UNL1       -0.4700
      2 C         138.5154  143.2386  164.5706 C.ar    1  UNL1        0.1578
      3 C         139.4568  143.8905  165.5395 C.ar    1  UNL1        0.0401
      4 C         140.2091  143.0545  166.5321 C.ar    1  UNL1        0.0223
      5 C         140.0199  141.5667  166.5558 C.ar    1  UNL1        0.0815
      6 N         139.0785  140.9148  165.5869 N.ar    1  UNL1       -0.2407
      7 C         138.3262  141.7507  164.5943 C.ar    1  UNL1        0.1356
      8 C         140.7722  140.7308  167.5484 C.ar    1  UNL1        0.0178
      9 C         142.0487  140.0544  167.1447 C.ar    1  UNL1        0.0038
     10 C         142.8010  139.2184  168.1373 C.ar    1  UNL1        0.0297
     11 C         142.2767  139.0589  169.5336 C.ar    1  UNL1        0.1401
     12 F         143.0290  138.2229  170.5262 F       1  UNL1       -0.2042
     13 C         141.0002  139.7353  169.9373 C.ar    1  UNL1        0.0297
     14 C         140.2479  140.5712  168.9447 C.ar    1  UNL1        0.0038
     15 C         138.4981  144.7587  162.4637 C.3     1  UNL1        0.2487
     16 C         142.8648  140.9798  159.7417 C.ar    1  UNL1        0.3976
     17 C         143.4668  142.2277  160.3163 C.ar    1  UNL1        0.1779
     18 N         142.3613  143.0373  160.9264 N.ar    1  UNL1       -0.2749
     19 C         141.0759  142.2897  160.7289 C.ar    1  UNL1        0.3058
     20 N         141.3871  141.0181  159.9967 N.ar    1  UNL1       -0.1275
     21 O         139.7882  142.8635  161.2413 O.3     1  UNL1       -0.4475
     22 C         139.7859  144.1848  161.9512 C.3     1  UNL1        0.2143
     23 C         141.0712  144.9324  162.1487 C.3     1  UNL1        0.0722
     24 C         142.3589  144.3587  161.6363 C.3     1  UNL1        0.1146
     25 O         144.5816  140.2230  157.9445 O.2     1  UNL1        0.0432
     26 N         143.6096  139.8856  159.0360 N.pl3   1  UNL1        0.1030
     27 O         143.3825  138.4540  159.4217 O.co2   1  UNL1       -0.5746
@<TRIPOS>UNITY_ATOM_ATTR
26 1
charge 1
27 1
charge -1
@<TRIPOS>BOND
     1    25    26    2
     2    26    27    1
     3    26    16    1
     4    16    17   ar
     5    17    18   ar
     6    18    19   ar
     7    19    20   ar
     8    19    21    1
     9    21    22    1
    10    22    15    1
    11    15     1    1
    12     1     2    1
    13     2     3   ar
    14     3     4   ar
    15     4     5   ar
    16     5     8    1
    17     8     9   ar
    18     9    10   ar
    19    10    11   ar
    20    11    12    1
    21    11    13   ar
    22    13    14   ar
    23     5     6   ar
    24     6     7   ar
    25    22    23    1
    26    23    24    1
    27    20    16   ar
    28     7     2   ar
    29    24    18    1
    30    14     8   ar
@<TRIPOS>MOLECULE
*****
 27 30 0 0 0
SMALL
GASTEIGER

@<TRIPOS>ATOM
      1 O         143.2868  138.9136  158.1108 O.3     1  UNL1       -0.4700
      2 C         142.4513  138.8993  159.3564 C.ar    1  UNL1        0.1578
      3 C         141.5515  140.0580  159.6693 C.ar    1  UNL1        0.0401
      4 C         140.7159  140.0437  160.9151 C.ar    1  UNL1        0.0223
      5 C         140.7802  138.8707  161.8478 C.ar    1  UNL1        0.0815
      6 N         141.6799  137.7121  161.5349 N.ar    1  UNL1       -0.2407
      7 C         142.5155  137.7264  160.2893 C.ar    1  UNL1        0.1356
      8 C         139.9446  138.8564  163.0934 C.ar    1  UNL1        0.0178
      9 C         139.1473  140.0681  163.4756 C.ar    1  UNL1        0.0038
     10 C         138.3117  140.0538  164.7213 C.ar    1  UNL1        0.0297
     11 C         138.2735  138.8278  165.5847 C.ar    1  UNL1        0.1401
     12 F         137.4380  138.8135  166.8303 F       1  UNL1       -0.2042
     13 C         139.0708  137.6161  165.2025 C.ar    1  UNL1        0.0297
     14 C         139.9063  137.6304  163.9568 C.ar    1  UNL1        0.0038
     15 C         142.7102  138.4247  156.8153 C.3     1  UNL1        0.2487
     16 C         143.4390  132.0841  156.9648 C.ar    1  UNL1        0.3976
     17 C         142.3392  132.5117  156.0386 C.ar    1  UNL1        0.1779
     18 N         142.2545  134.0087  156.0795 N.ar    1  UNL1       -0.2749
     19 C         143.3020  134.5064  157.0310 C.ar    1  UNL1        0.3058
     20 N         144.0340  133.3169  157.5781 N.ar    1  UNL1       -0.1275
     21 O         143.4539  135.9784  157.2762 O.3     1  UNL1       -0.4475
     22 C         142.5583  136.9527  156.5700 C.3     1  UNL1        0.2143
     23 C         141.5109  136.4550  155.6186 C.3     1  UNL1        0.0722
     24 C         141.3590  134.9830  155.3734 C.3     1  UNL1        0.1146
     25 O         144.8324  130.3776  158.3418 O.2     1  UNL1        0.0432
     26 N         143.8683  130.6717  157.2309 N.pl3   1  UNL1        0.1030
     27 O         143.3336  129.5535  156.3862 O.co2   1  UNL1       -0.5746
@<TRIPOS>UNITY_ATOM_ATTR
26 1
charge 1
27 1
charge -1
@<TRIPOS>BOND
     1    25    26    2
     2    26    27    1
     3    26    16    1
     4    16    17   ar
     5    17    18   ar
     6    18    19   ar
     7    19    20   ar
     8    19    21    1
     9    21    22    1
    10    22    15    1
    11    15     1    1
    12     1     2    1
    13     2     3   ar
    14     3     4   ar
    15     4     5   ar
    16     5     8    1
    17     8     9   ar
    18     9    10   ar
    19    10    11   ar
    20    11    12    1
    21    11    13   ar
    22    13    14   ar
    23     5     6   ar
    24     6     7   ar
    25    22    23    1
    26    23    24    1
    27    20    16   ar
    28     7     2   ar
    29    24    18    1
    30    14     8   ar
@<TRIPOS>MOLECULE
*****
 27 30 0 0 0
SMALL
GASTEIGER

@<TRIPOS>ATOM
      1 O         145.5578  141.8124  162.5323 O.3     1  UNL1       -0.4700
      2 C         144.7137  141.5205  163.7374 C.ar    1  UNL1        0.1578
      3 C         144.3816  142.6182  164.7042 C.ar    1  UNL1        0.0401
      4 C         143.5374  142.3262  165.9093 C.ar    1  UNL1        0.0223
      5 C         143.0254  140.9365  166.1475 C.ar    1  UNL1        0.0815
      6 N         143.3575  139.8389  165.1806 N.ar    1  UNL1       -0.2407
      7 C         144.2017  140.1308  163.9756 C.ar    1  UNL1        0.1356
      8 C         142.1812  140.6446  167.3525 C.ar    1  UNL1        0.0178
      9 C         142.6967  139.7328  168.4263 C.ar    1  UNL1        0.0038
     10 C         141.8525  139.4409  169.6314 C.ar    1  UNL1        0.0297
     11 C         140.4929  140.0608  169.7626 C.ar    1  UNL1        0.1401
     12 F         139.6487  139.7688  170.9677 F       1  UNL1       -0.2042
     13 C         139.9774  140.9725  168.6889 C.ar    1  UNL1        0.0297
     14 C         140.8216  141.2645  167.4838 C.ar    1  UNL1        0.0038
     15 C         144.9869  142.5980  161.3891 C.3     1  UNL1        0.2487
     16 C         139.0499  140.9768  159.6920 C.ar    1  UNL1        0.3976
     17 C         139.1152  142.3413  160.3115 C.ar    1  UNL1        0.1779
     18 N         140.5448  142.6197  160.6702 N.ar    1  UNL1       -0.2749
     19 C         141.3631  141.4272  160.2724 C.ar    1  UNL1        0.3058
     20 N         140.4392  140.4119  159.6678 N.ar    1  UNL1       -0.1275
     21 O         142.8438  141.4200  160.5120 O.3     1  UNL1       -0.4475
     22 C         143.5062  142.6052  161.1495 C.3     1  UNL1        0.2143
     23 C         142.6878  143.7977  161.5474 C.3     1  UNL1        0.0722
     24 C         141.2071  143.8049  161.3077 C.3     1  UNL1        0.1146
     25 O         136.9064  139.5793  160.1416 O.2     1  UNL1        0.0432
     26 N         137.8126  140.2967  159.1856 N.pl3   1  UNL1        0.1030
     27 O         137.4815  140.3339  157.7231 O.co2   1  UNL1       -0.5746
@<TRIPOS>UNITY_ATOM_ATTR
26 1
charge 1
27 1
charge -1
@<TRIPOS>BOND
     1    25    26    2
     2    26    27    1
     3    26    16    1
     4    16    17   ar
     5    17    18   ar
     6    18    19   ar
     7    19    20   ar
     8    19    21    1
     9    21    22    1
    10    22    15    1
    11    15     1    1
    12     1     2    1
    13     2     3   ar
    14     3     4   ar
    15     4     5   ar
    16     5     8    1
    17     8     9   ar
    18     9    10   ar
    19    10    11   ar
    20    11    12    1
    21    11    13   ar
    22    13    14   ar
    23     5     6   ar
    24     6     7   ar
    25    22    23    1
    26    23    24    1
    27    20    16   ar
    28     7     2   ar
    29    24    18    1
    30    14     8   ar
