@<TRIPOS>MOLECULE
*****
 26 30 0 0 0
SMALL
GASTEIGER

@<TRIPOS>ATOM
      1 C         139.5995  145.9263  162.0884 C.3     1  UNL1        0.0899
      2 N         140.0347  144.5056  162.2940 N.3     1  UNL1       -0.2671
      3 C         140.1269  143.5725  161.1232 C.3     1  UNL1        0.0989
      4 C         140.5621  142.1518  161.3289 C.ar    1  UNL1       -0.0085
      5 C         140.6543  141.2187  160.1581 C.ar    1  UNL1        0.0113
      6 C         141.0895  139.7980  160.3638 C.ar    1  UNL1        0.0477
      7 C         141.4326  139.3105  161.7402 C.ar    1  UNL1        0.0142
      8 C         141.3405  140.2437  162.9110 C.ar    1  UNL1       -0.0029
      9 C         140.9052  141.6643  162.7053 C.ar    1  UNL1       -0.0196
     10 C         140.8131  142.5975  163.8761 C.3     1  UNL1        0.0602
     11 C         140.3778  144.0181  163.6705 C.3     1  UNL1        0.0811
     12 C         141.1562  142.1100  165.2526 C.ar    1  UNL1       -0.0170
     13 C         142.5411  142.3065  165.7943 C.ar    1  UNL1       -0.0034
     14 C         142.8842  141.8190  167.1708 C.ar    1  UNL1        0.0062
     15 C         141.8424  141.1350  168.0055 C.ar    1  UNL1        0.0295
     16 S         141.8867  140.5524  169.3870 S.2     1  UNL1       -0.0864
     17 C         140.5292  139.9959  169.6992 C.ar    1  UNL1        0.0354
     18 C         139.6459  140.2345  168.5105 C.ar    1  UNL1        0.0075
     19 C         140.4575  140.9385  167.4638 C.ar    1  UNL1        0.0062
     20 C         140.1144  141.4260  166.0873 C.ar    1  UNL1       -0.0034
     21 N         141.1817  138.8648  159.1930 N.pl3   1  UNL1       -0.3028
     22 C         139.9657  138.5827  158.3612 C.3     1  UNL1        0.1231
     23 C         140.0578  137.6496  157.1905 C.3     1  UNL1        0.1636
     24 O         141.3660  136.9985  156.8514 O.3     1  UNL1       -0.3501
     25 C         142.5820  137.2806  157.6832 C.3     1  UNL1        0.1636
     26 C         142.4898  138.2138  158.8540 C.3     1  UNL1        0.1231
@<TRIPOS>BOND
     1     1     2    1
     2     2     3    1
     3     3     4    1
     4     4     5   ar
     5     5     6   ar
     6     6    21    1
     7    21    22    1
     8    22    23    1
     9    23    24    1
    10    24    25    1
    11    25    26    1
    12     6     7   ar
    13     7     8   ar
    14     8     9   ar
    15     9    10    1
    16    10    12    1
    17    12    13   ar
    18    13    14   ar
    19    14    15   ar
    20    15    16   ar
    21    16    17   ar
    22    17    18   ar
    23    18    19   ar
    24    19    20   ar
    25    10    11    1
    26    11     2    1
    27     9     4   ar
    28    20    12   ar
    29    26    21    1
    30    19    15   ar
@<TRIPOS>MOLECULE
*****
 26 30 0 0 0
SMALL
GASTEIGER

@<TRIPOS>ATOM
      1 C         139.6373  146.3581  161.7574 C.3     1  UNL1        0.0899
      2 N         140.0002  145.0396  162.3739 N.3     1  UNL1       -0.2671
      3 C         139.8451  144.8347  163.8517 C.3     1  UNL1        0.0989
      4 C         140.2081  143.5162  164.4682 C.ar    1  UNL1       -0.0085
      5 C         140.0530  143.3113  165.9460 C.ar    1  UNL1        0.0113
      6 C         140.4160  141.9929  166.5625 C.ar    1  UNL1        0.0477
      7 C         140.9340  140.8794  165.7011 C.ar    1  UNL1        0.0142
      8 C         141.0890  141.0844  164.2233 C.ar    1  UNL1       -0.0029
      9 C         140.7261  142.4028  163.6069 C.ar    1  UNL1       -0.0196
     10 C         140.8812  142.6078  162.1290 C.3     1  UNL1        0.0602
     11 C         140.5182  143.9262  161.5126 C.3     1  UNL1        0.0811
     12 C         141.3992  141.4944  161.2677 C.ar    1  UNL1       -0.0170
     13 C         142.8360  141.0753  161.3674 C.ar    1  UNL1       -0.0034
     14 C         143.3540  139.9619  160.5061 C.ar    1  UNL1        0.0062
     15 C         142.4352  139.2675  159.5450 C.ar    1  UNL1        0.0295
     16 S         142.6591  138.1453  158.5752 S.2     1  UNL1       -0.0864
     17 C         141.3607  137.8708  157.8761 C.ar    1  UNL1        0.0354
     18 C         140.3343  138.8233  158.4139 C.ar    1  UNL1        0.0075
     19 C         140.9984  139.6865  159.4453 C.ar    1  UNL1        0.0062
     20 C         140.4804  140.7999  160.3067 C.ar    1  UNL1       -0.0034
     21 N         140.2609  141.7879  168.0403 N.pl3   1  UNL1       -0.3028
     22 C         139.9837  140.4169  168.5823 C.3     1  UNL1        0.1231
     23 C         139.8287  140.2119  170.0601 C.3     1  UNL1        0.1636
     24 O         139.9508  141.3778  170.9960 O.3     1  UNL1       -0.3501
     25 C         140.2280  142.7487  170.4540 C.3     1  UNL1        0.1636
     26 C         140.3830  142.9537  168.9761 C.3     1  UNL1        0.1231
@<TRIPOS>BOND
     1     1     2    1
     2     2     3    1
     3     3     4    1
     4     4     5   ar
     5     5     6   ar
     6     6    21    1
     7    21    22    1
     8    22    23    1
     9    23    24    1
    10    24    25    1
    11    25    26    1
    12     6     7   ar
    13     7     8   ar
    14     8     9   ar
    15     9    10    1
    16    10    12    1
    17    12    13   ar
    18    13    14   ar
    19    14    15   ar
    20    15    16   ar
    21    16    17   ar
    22    17    18   ar
    23    18    19   ar
    24    19    20   ar
    25    10    11    1
    26    11     2    1
    27     9     4   ar
    28    20    12   ar
    29    26    21    1
    30    19    15   ar
@<TRIPOS>MOLECULE
*****
 26 30 0 0 0
SMALL
GASTEIGER

@<TRIPOS>ATOM
      1 C         146.0092  141.6938  163.5725 C.3     1  UNL1        0.0899
      2 N         144.5099  141.6519  163.5925 N.3     1  UNL1       -0.2671
      3 C         143.7404  141.7209  162.3068 C.3     1  UNL1        0.0989
      4 C         142.2411  141.6790  162.3268 C.ar    1  UNL1       -0.0085
      5 C         141.4716  141.7481  161.0411 C.ar    1  UNL1        0.0113
      6 C         139.9724  141.7062  161.0611 C.ar    1  UNL1        0.0477
      7 C         139.2426  141.5952  162.3669 C.ar    1  UNL1        0.0142
      8 C         140.0120  141.5261  163.6526 C.ar    1  UNL1       -0.0029
      9 C         141.5113  141.5680  163.6326 C.ar    1  UNL1       -0.0196
     10 C         142.2808  141.4989  164.9183 C.3     1  UNL1        0.0602
     11 C         143.7801  141.5408  164.8983 C.3     1  UNL1        0.0811
     12 C         141.5510  141.3879  166.2241 C.ar    1  UNL1       -0.0170
     13 C         140.9291  140.0837  166.6272 C.ar    1  UNL1       -0.0034
     14 C         140.1993  139.9727  167.9330 C.ar    1  UNL1        0.0062
     15 C         140.0914  141.1659  168.8357 C.ar    1  UNL1        0.0295
     16 S         139.4393  141.3570  170.1729 S.2     1  UNL1       -0.0864
     17 C         139.6581  142.7793  170.5962 C.ar    1  UNL1        0.0354
     18 C         140.4455  143.4671  169.5207 C.ar    1  UNL1        0.0075
     19 C         140.7133  142.4700  168.4326 C.ar    1  UNL1        0.0062
     20 C         141.4431  142.5810  167.1268 C.ar    1  UNL1       -0.0034
     21 N         139.2029  141.7753  159.7754 N.pl3   1  UNL1       -0.3028
     22 C         138.3523  140.6163  159.3472 C.3     1  UNL1        0.1231
     23 C         137.5828  140.6854  158.0615 C.3     1  UNL1        0.1636
     24 O         137.6638  141.9134  157.2039 O.3     1  UNL1       -0.3501
     25 C         138.5144  143.0724  157.6321 C.3     1  UNL1        0.1636
     26 C         139.2839  143.0033  158.9179 C.3     1  UNL1        0.1231
@<TRIPOS>BOND
     1     1     2    1
     2     2     3    1
     3     3     4    1
     4     4     5   ar
     5     5     6   ar
     6     6    21    1
     7    21    22    1
     8    22    23    1
     9    23    24    1
    10    24    25    1
    11    25    26    1
    12     6     7   ar
    13     7     8   ar
    14     8     9   ar
    15     9    10    1
    16    10    12    1
    17    12    13   ar
    18    13    14   ar
    19    14    15   ar
    20    15    16   ar
    21    16    17   ar
    22    17    18   ar
    23    18    19   ar
    24    19    20   ar
    25    10    11    1
    26    11     2    1
    27     9     4   ar
    28    20    12   ar
    29    26    21    1
    30    19    15   ar
@<TRIPOS>MOLECULE
*****
 26 30 0 0 0
SMALL
GASTEIGER

@<TRIPOS>ATOM
      1 C         128.2288  143.2717  154.4603 C.3     1  UNL1        0.0899
      2 N         129.1151  142.2664  155.1341 N.3     1  UNL1       -0.2671
      3 C         130.5899  142.2643  154.8607 C.3     1  UNL1        0.0989
      4 C         131.4762  141.2590  155.5346 C.ar    1  UNL1       -0.0085
      5 C         132.9510  141.2569  155.2612 C.ar    1  UNL1        0.0113
      6 C         133.8372  140.2517  155.9351 C.ar    1  UNL1        0.0477
      7 C         133.2485  139.2486  156.8823 C.ar    1  UNL1        0.0142
      8 C         131.7737  139.2507  157.1557 C.ar    1  UNL1       -0.0029
      9 C         130.8875  140.2559  156.4818 C.ar    1  UNL1       -0.0196
     10 C         129.4126  140.2581  156.7552 C.3     1  UNL1        0.0602
     11 C         128.5264  141.2633  156.0814 C.3     1  UNL1        0.0811
     12 C         128.8239  139.2550  157.7024 C.ar    1  UNL1       -0.0170
     13 C         128.5636  137.8513  157.2419 C.ar    1  UNL1       -0.0034
     14 C         127.9750  136.8482  158.1891 C.ar    1  UNL1        0.0062
     15 C         127.6466  137.2488  159.5969 C.ar    1  UNL1        0.0295
     16 S         127.0626  136.4841  160.7476 S.2     1  UNL1       -0.0864
     17 C         126.9620  137.4152  161.9194 C.ar    1  UNL1        0.0354
     18 C         127.4838  138.7552  161.4928 C.ar    1  UNL1        0.0075
     19 C         127.9069  138.6524  160.0574 C.ar    1  UNL1        0.0062
     20 C         128.4955  139.6555  159.1102 C.ar    1  UNL1       -0.0034
     21 N         135.3121  140.2495  155.6617 N.pl3   1  UNL1       -0.3028
     22 C         136.2254  141.1258  156.4668 C.3     1  UNL1        0.1231
     23 C         137.7002  141.1236  156.1934 C.3     1  UNL1        0.1636
     24 O         138.2619  140.2452  155.1150 O.3     1  UNL1       -0.3501
     25 C         137.3487  139.3689  154.3100 C.3     1  UNL1        0.1636
     26 C         135.8737  139.3711  154.5833 C.3     1  UNL1        0.1231
@<TRIPOS>BOND
     1     1     2    1
     2     2     3    1
     3     3     4    1
     4     4     5   ar
     5     5     6   ar
     6     6    21    1
     7    21    22    1
     8    22    23    1
     9    23    24    1
    10    24    25    1
    11    25    26    1
    12     6     7   ar
    13     7     8   ar
    14     8     9   ar
    15     9    10    1
    16    10    12    1
    17    12    13   ar
    18    13    14   ar
    19    14    15   ar
    20    15    16   ar
    21    16    17   ar
    22    17    18   ar
    23    18    19   ar
    24    19    20   ar
    25    10    11    1
    26    11     2    1
    27     9     4   ar
    28    20    12   ar
    29    26    21    1
    30    19    15   ar
@<TRIPOS>MOLECULE
*****
 26 30 0 0 0
SMALL
GASTEIGER

@<TRIPOS>ATOM
      1 C         141.0850  136.8833  163.8265 C.3     1  UNL1        0.0899
      2 N         141.1866  138.3794  163.8674 N.3     1  UNL1       -0.2671
      3 C         141.2267  139.1636  162.5894 C.3     1  UNL1        0.0989
      4 C         141.3283  140.6596  162.6303 C.ar    1  UNL1       -0.0085
      5 C         141.3685  141.4438  161.3523 C.ar    1  UNL1        0.0113
      6 C         141.4701  142.9398  161.3932 C.ar    1  UNL1        0.0477
      7 C         141.5315  143.6516  162.7121 C.ar    1  UNL1        0.0142
      8 C         141.4914  142.8674  163.9902 C.ar    1  UNL1       -0.0029
      9 C         141.3898  141.3714  163.9492 C.ar    1  UNL1       -0.0196
     10 C         141.3496  140.5871  165.2273 C.3     1  UNL1        0.0602
     11 C         141.2481  139.0912  165.1864 C.3     1  UNL1        0.0811
     12 C         141.4111  141.2989  166.5462 C.ar    1  UNL1       -0.0170
     13 C         140.1622  141.8713  167.1485 C.ar    1  UNL1       -0.0034
     14 C         140.2236  142.5831  168.4674 C.ar    1  UNL1        0.0062
     15 C         141.5340  142.7224  169.1841 C.ar    1  UNL1        0.0295
     16 S         141.9012  143.3666  170.4880 S.2     1  UNL1       -0.0864
     17 C         143.3771  143.1923  170.6916 C.ar    1  UNL1        0.0354
     18 C         143.9219  142.4404  169.5136 C.ar    1  UNL1        0.0075
     19 C         142.7828  142.1500  168.5819 C.ar    1  UNL1        0.0062
     20 C         142.7214  141.4382  167.2630 C.ar    1  UNL1       -0.0034
     21 N         141.5102  143.7241  160.1151 N.pl3   1  UNL1       -0.3028
     22 C         140.4423  144.7359  159.8223 C.3     1  UNL1        0.1231
     23 C         140.4824  145.5202  158.5443 C.3     1  UNL1        0.1636
     24 O         141.5905  145.2926  157.5591 O.3     1  UNL1       -0.3501
     25 C         142.6584  144.2808  157.8520 C.3     1  UNL1        0.1636
     26 C         142.6182  143.4965  159.1300 C.3     1  UNL1        0.1231
@<TRIPOS>BOND
     1     1     2    1
     2     2     3    1
     3     3     4    1
     4     4     5   ar
     5     5     6   ar
     6     6    21    1
     7    21    22    1
     8    22    23    1
     9    23    24    1
    10    24    25    1
    11    25    26    1
    12     6     7   ar
    13     7     8   ar
    14     8     9   ar
    15     9    10    1
    16    10    12    1
    17    12    13   ar
    18    13    14   ar
    19    14    15   ar
    20    15    16   ar
    21    16    17   ar
    22    17    18   ar
    23    18    19   ar
    24    19    20   ar
    25    10    11    1
    26    11     2    1
    27     9     4   ar
    28    20    12   ar
    29    26    21    1
    30    19    15   ar
@<TRIPOS>MOLECULE
*****
 26 30 0 0 0
SMALL
GASTEIGER

@<TRIPOS>ATOM
      1 C         138.1588  138.0235  162.2539 C.3     1  UNL1        0.0899
      2 N         139.0026  139.2085  162.6200 N.3     1  UNL1       -0.2671
      3 C         139.2888  139.5088  164.0615 C.3     1  UNL1        0.0989
      4 C         140.1325  140.6938  164.4276 C.ar    1  UNL1       -0.0085
      5 C         140.4187  140.9940  165.8691 C.ar    1  UNL1        0.0113
      6 C         141.2624  142.1790  166.2351 C.ar    1  UNL1        0.0477
      7 C         141.8200  143.0636  165.1597 C.ar    1  UNL1        0.0142
      8 C         141.5338  142.7633  163.7182 C.ar    1  UNL1       -0.0029
      9 C         140.6901  141.5784  163.3522 C.ar    1  UNL1       -0.0196
     10 C         140.4039  141.2781  161.9106 C.3     1  UNL1        0.0602
     11 C         139.5602  140.0931  161.5446 C.3     1  UNL1        0.0811
     12 C         140.9614  142.1627  160.8352 C.ar    1  UNL1       -0.0170
     13 C         142.3081  141.8671  160.2441 C.ar    1  UNL1       -0.0034
     14 C         142.8656  142.7518  159.1687 C.ar    1  UNL1        0.0062
     15 C         142.0765  143.9320  158.6843 C.ar    1  UNL1        0.0295
     16 S         142.3656  144.9744  157.6452 S.2     1  UNL1       -0.0864
     17 C         141.1976  145.9142  157.5941 C.ar    1  UNL1        0.0354
     18 C         140.1868  145.4526  158.6016 C.ar    1  UNL1        0.0075
     19 C         140.7300  144.2275  159.2754 C.ar    1  UNL1        0.0062
     20 C         140.1724  143.3429  160.3509 C.ar    1  UNL1       -0.0034
     21 N         141.5486  142.4793  167.6766 N.pl3   1  UNL1       -0.3028
     22 C         142.9055  142.1914  168.2476 C.3     1  UNL1        0.1231
     23 C         143.1918  142.4918  169.6891 C.3     1  UNL1        0.1636
     24 O         142.1211  143.0799  170.5596 O.3     1  UNL1       -0.3501
     25 C         140.7642  143.3678  169.9887 C.3     1  UNL1        0.1636
     26 C         140.4780  143.0675  168.5471 C.3     1  UNL1        0.1231
@<TRIPOS>BOND
     1     1     2    1
     2     2     3    1
     3     3     4    1
     4     4     5   ar
     5     5     6   ar
     6     6    21    1
     7    21    22    1
     8    22    23    1
     9    23    24    1
    10    24    25    1
    11    25    26    1
    12     6     7   ar
    13     7     8   ar
    14     8     9   ar
    15     9    10    1
    16    10    12    1
    17    12    13   ar
    18    13    14   ar
    19    14    15   ar
    20    15    16   ar
    21    16    17   ar
    22    17    18   ar
    23    18    19   ar
    24    19    20   ar
    25    10    11    1
    26    11     2    1
    27     9     4   ar
    28    20    12   ar
    29    26    21    1
    30    19    15   ar
@<TRIPOS>MOLECULE
*****
 26 30 0 0 0
SMALL
GASTEIGER

@<TRIPOS>ATOM
      1 C         145.3732  141.3024  156.5933 C.3     1  UNL1        0.0899
      2 N         144.1541  140.5806  157.0862 N.3     1  UNL1       -0.2671
      3 C         143.2742  141.2155  158.1219 C.3     1  UNL1        0.0989
      4 C         142.0551  140.4937  158.6148 C.ar    1  UNL1       -0.0085
      5 C         141.1751  141.1285  159.6505 C.ar    1  UNL1        0.0113
      6 C         139.9561  140.4067  160.1433 C.ar    1  UNL1        0.0477
      7 C         139.6170  139.0501  159.6005 C.ar    1  UNL1        0.0142
      8 C         140.4969  138.4153  158.5648 C.ar    1  UNL1       -0.0029
      9 C         141.7160  139.1371  158.0720 C.ar    1  UNL1       -0.0196
     10 C         142.5960  138.5023  157.0363 C.3     1  UNL1        0.0602
     11 C         143.8150  139.2240  156.5434 C.3     1  UNL1        0.0811
     12 C         142.2569  137.1457  156.4935 C.ar    1  UNL1       -0.0170
     13 C         141.2519  137.0099  155.3881 C.ar    1  UNL1       -0.0034
     14 C         140.9128  135.6533  154.8453 C.ar    1  UNL1        0.0062
     15 C         141.5787  134.4325  155.4078 C.ar    1  UNL1        0.0295
     16 S         141.4475  132.9753  155.0770 S.2     1  UNL1       -0.0864
     17 C         142.3714  132.2105  155.9779 C.ar    1  UNL1        0.0354
     18 C         143.0735  133.1951  156.8654 C.ar    1  UNL1        0.0075
     19 C         142.5836  134.5683  156.5131 C.ar    1  UNL1        0.0062
     20 C         142.9227  135.9249  157.0559 C.ar    1  UNL1       -0.0034
     21 N         139.0761  141.0416  161.1790 N.pl3   1  UNL1       -0.3028
     22 C         138.7972  142.5144  161.1255 C.3     1  UNL1        0.1231
     23 C         137.9172  143.1493  162.1612 C.3     1  UNL1        0.1636
     24 O         137.3161  142.3112  163.2504 O.3     1  UNL1       -0.3501
     25 C         137.5950  140.8384  163.3039 C.3     1  UNL1        0.1636
     26 C         138.4750  140.2035  162.2682 C.3     1  UNL1        0.1231
@<TRIPOS>BOND
     1     1     2    1
     2     2     3    1
     3     3     4    1
     4     4     5   ar
     5     5     6   ar
     6     6    21    1
     7    21    22    1
     8    22    23    1
     9    23    24    1
    10    24    25    1
    11    25    26    1
    12     6     7   ar
    13     7     8   ar
    14     8     9   ar
    15     9    10    1
    16    10    12    1
    17    12    13   ar
    18    13    14   ar
    19    14    15   ar
    20    15    16   ar
    21    16    17   ar
    22    17    18   ar
    23    18    19   ar
    24    19    20   ar
    25    10    11    1
    26    11     2    1
    27     9     4   ar
    28    20    12   ar
    29    26    21    1
    30    19    15   ar
@<TRIPOS>MOLECULE
*****
 26 30 0 0 0
SMALL
GASTEIGER

@<TRIPOS>ATOM
      1 C         141.3335  141.6973  158.9648 C.3     1  UNL1        0.0899
      2 N         142.1041  140.7830  158.0591 N.3     1  UNL1       -0.2671
      3 C         141.8212  139.3100  158.0632 C.3     1  UNL1        0.0989
      4 C         142.5918  138.3957  157.1574 C.ar    1  UNL1       -0.0085
      5 C         142.3089  136.9226  157.1615 C.ar    1  UNL1        0.0113
      6 C         143.0795  136.0084  156.2558 C.ar    1  UNL1        0.0477
      7 C         144.1330  136.5673  155.3460 C.ar    1  UNL1        0.0142
      8 C         144.4159  138.0403  155.3419 C.ar    1  UNL1       -0.0029
      9 C         143.6453  138.9545  156.2476 C.ar    1  UNL1       -0.0196
     10 C         143.9283  140.4276  156.2435 C.3     1  UNL1        0.0602
     11 C         143.1577  141.3418  157.1492 C.3     1  UNL1        0.0811
     12 C         144.9818  140.9865  155.3337 C.ar    1  UNL1       -0.0170
     13 C         144.6215  141.4110  153.9408 C.ar    1  UNL1       -0.0034
     14 C         145.6751  141.9699  153.0310 C.ar    1  UNL1        0.0062
     15 C         147.0889  142.1041  153.5141 C.ar    1  UNL1        0.0295
     16 S         148.3323  142.6159  152.8493 S.2     1  UNL1       -0.0864
     17 C         149.4610  142.5077  153.8313 C.ar    1  UNL1        0.0354
     18 C         148.9151  141.9290  155.1029 C.ar    1  UNL1        0.0075
     19 C         147.4490  141.6796  154.9069 C.ar    1  UNL1        0.0062
     20 C         146.3955  141.1208  155.8167 C.ar    1  UNL1       -0.0034
     21 N         142.7965  134.5353  156.2599 N.pl3   1  UNL1       -0.3028
     22 C         141.7581  133.9685  155.3377 C.3     1  UNL1        0.1231
     23 C         141.4752  132.4955  155.3417 C.3     1  UNL1        0.1636
     24 O         142.2307  131.5891  156.2679 O.3     1  UNL1       -0.3501
     25 C         143.2691  132.1559  157.1902 C.3     1  UNL1        0.1636
     26 C         143.5520  133.6291  157.1861 C.3     1  UNL1        0.1231
@<TRIPOS>BOND
     1     1     2    1
     2     2     3    1
     3     3     4    1
     4     4     5   ar
     5     5     6   ar
     6     6    21    1
     7    21    22    1
     8    22    23    1
     9    23    24    1
    10    24    25    1
    11    25    26    1
    12     6     7   ar
    13     7     8   ar
    14     8     9   ar
    15     9    10    1
    16    10    12    1
    17    12    13   ar
    18    13    14   ar
    19    14    15   ar
    20    15    16   ar
    21    16    17   ar
    22    17    18   ar
    23    18    19   ar
    24    19    20   ar
    25    10    11    1
    26    11     2    1
    27     9     4   ar
    28    20    12   ar
    29    26    21    1
    30    19    15   ar
@<TRIPOS>MOLECULE
*****
 26 30 0 0 0
SMALL
GASTEIGER

@<TRIPOS>ATOM
      1 C         146.3407  141.7795  153.9445 C.3     1  UNL1        0.0899
      2 N         145.4376  141.1022  154.9324 N.3     1  UNL1       -0.2671
      3 C         145.1278  139.6418  154.7867 C.3     1  UNL1        0.0989
      4 C         144.2248  138.9645  155.7746 C.ar    1  UNL1       -0.0085
      5 C         143.9149  137.5041  155.6289 C.ar    1  UNL1        0.0113
      6 C         143.0120  136.8268  156.6167 C.ar    1  UNL1        0.0477
      7 C         142.4188  137.6099  157.7503 C.ar    1  UNL1        0.0142
      8 C         142.7286  139.0703  157.8959 C.ar    1  UNL1       -0.0029
      9 C         143.6316  139.7476  156.9081 C.ar    1  UNL1       -0.0196
     10 C         143.9415  141.2080  157.0538 C.3     1  UNL1        0.0602
     11 C         144.8445  141.8853  156.0659 C.3     1  UNL1        0.0811
     12 C         143.3483  141.9911  158.1873 C.ar    1  UNL1       -0.0170
     13 C         141.9425  142.5051  158.0891 C.ar    1  UNL1       -0.0034
     14 C         141.3493  143.2882  159.2226 C.ar    1  UNL1        0.0062
     15 C         142.1620  143.5574  160.4544 C.ar    1  UNL1        0.0295
     16 S         141.8480  144.2940  161.7227 S.2     1  UNL1       -0.0864
     17 C         143.0598  144.2353  162.6049 C.ar    1  UNL1        0.0354
     18 C         144.1226  143.4624  161.8817 C.ar    1  UNL1        0.0075
     19 C         143.5677  143.0434  160.5526 C.ar    1  UNL1        0.0062
     20 C         144.1609  142.2603  159.4190 C.ar    1  UNL1       -0.0034
     21 N         142.7021  135.3664  156.4711 N.pl3   1  UNL1       -0.3028
     22 C         143.4389  134.3570  157.3007 C.3     1  UNL1        0.1231
     23 C         143.1290  132.8966  157.1551 C.3     1  UNL1        0.1636
     24 O         142.0824  132.4456  156.1798 O.3     1  UNL1       -0.3501
     25 C         141.3456  133.4549  155.3501 C.3     1  UNL1        0.1636
     26 C         141.6555  134.9154  155.4958 C.3     1  UNL1        0.1231
@<TRIPOS>BOND
     1     1     2    1
     2     2     3    1
     3     3     4    1
     4     4     5   ar
     5     5     6   ar
     6     6    21    1
     7    21    22    1
     8    22    23    1
     9    23    24    1
    10    24    25    1
    11    25    26    1
    12     6     7   ar
    13     7     8   ar
    14     8     9   ar
    15     9    10    1
    16    10    12    1
    17    12    13   ar
    18    13    14   ar
    19    14    15   ar
    20    15    16   ar
    21    16    17   ar
    22    17    18   ar
    23    18    19   ar
    24    19    20   ar
    25    10    11    1
    26    11     2    1
    27     9     4   ar
    28    20    12   ar
    29    26    21    1
    30    19    15   ar
