@<TRIPOS>MOLECULE
*****
 21 23 0 0 0
SMALL
GASTEIGER

@<TRIPOS>ATOM
      1 C         137.9310  140.5078  163.1194 C.3     1  UNL1        0.0798
      2 C         138.3633  139.1580  163.6104 C.3     1  UNL1        0.0421
      3 C         139.1998  139.0435  164.8502 C.3     1  UNL1        0.0973
      4 N         139.6040  140.2787  165.5990 N.pl3   1  UNL1       -0.2870
      5 C         139.1717  141.6286  165.1080 C.ar    1  UNL1        0.0488
      6 C         139.5759  142.8638  165.8568 C.ar    1  UNL1        0.0146
      7 C         139.1436  144.2136  165.3658 C.ar    1  UNL1        0.0013
      8 C         138.3072  144.3282  164.1260 C.ar    1  UNL1       -0.0002
      9 C         137.9030  143.0929  163.3772 C.ar    1  UNL1       -0.0017
     10 C         138.3352  141.7431  163.8682 C.ar    1  UNL1        0.0057
     11 C         140.4405  140.1641  166.8389 C.ar    1  UNL1        0.0525
     12 C         141.9352  140.0986  166.7318 C.ar    1  UNL1        0.0157
     13 C         142.7717  139.9841  167.9716 C.ar    1  UNL1        0.0135
     14 C         142.1135  139.9350  169.3185 C.ar    1  UNL1        0.0683
     15 CL        142.9499  139.8205  170.5583 Cl      1  UNL1       -0.0814
     16 C         140.6187  140.0005  169.4257 C.ar    1  UNL1        0.0694
     17 CL        139.9605  139.9515  170.7726 Cl      1  UNL1       -0.0813
     18 C         139.7822  140.1151  168.1859 C.ar    1  UNL1        0.0271
     19 C         137.4821  139.8699  160.6412 C.3     1  UNL1        0.0861
     20 N         137.0946  140.6224  161.8795 N.3     1  UNL1       -0.2939
     21 H         136.1546  140.3146  162.1290 H       1  UNL1        0.1235
@<TRIPOS>BOND
     1    19    20    1
     2     1    20    1
     3     1     2    1
     4     2     3    1
     5     3     4    1
     6     4    11    1
     7    11    12   ar
     8    12    13   ar
     9    13    14   ar
    10    14    15    1
    11    14    16   ar
    12    16    17    1
    13    16    18   ar
    14     4     5    1
    15     5     6   ar
    16     6     7   ar
    17     7     8   ar
    18     8     9   ar
    19     9    10   ar
    20    10     1    1
    21    18    11   ar
    22    10     5   ar
    23    20    21    1
@<TRIPOS>MOLECULE
*****
 21 23 0 0 0
SMALL
GASTEIGER

@<TRIPOS>ATOM
      1 C         140.7210  144.9936  163.5965 C.3     1  UNL1        0.0798
      2 C         139.3998  144.8968  164.3001 C.3     1  UNL1        0.0421
      3 C         139.2497  144.0011  165.4939 C.3     1  UNL1        0.0973
      4 N         140.4207  143.2021  165.9840 N.pl3   1  UNL1       -0.2870
      5 C         141.7420  143.2988  165.2804 C.ar    1  UNL1        0.0488
      6 C         142.9130  142.4999  165.7705 C.ar    1  UNL1        0.0146
      7 C         144.2341  142.5966  165.0668 C.ar    1  UNL1        0.0013
      8 C         144.3843  143.4924  163.8731 C.ar    1  UNL1       -0.0002
      9 C         143.2132  144.2914  163.3829 C.ar    1  UNL1       -0.0017
     10 C         141.8921  144.1946  164.0866 C.ar    1  UNL1        0.0057
     11 C         140.2706  142.3064  167.1778 C.ar    1  UNL1        0.0525
     12 C         139.8362  140.8821  166.9969 C.ar    1  UNL1        0.0157
     13 C         139.6861  139.9864  168.1907 C.ar    1  UNL1        0.0135
     14 C         139.9704  140.5149  169.5654 C.ar    1  UNL1        0.0683
     15 CL        139.8203  139.6191  170.7592 Cl      1  UNL1       -0.0814
     16 C         140.4049  141.9392  169.7463 C.ar    1  UNL1        0.0694
     17 CL        140.6892  142.4677  171.1210 Cl      1  UNL1       -0.0813
     18 C         140.5550  142.8349  168.5526 C.ar    1  UNL1        0.0271
     19 C         139.6575  146.3342  161.6415 C.3     1  UNL1        0.0861
     20 N         140.8711  145.8893  162.4027 N.3     1  UNL1       -0.2939
     21 H         141.3420  146.7344  162.7260 H       1  UNL1        0.1235
@<TRIPOS>BOND
     1    19    20    1
     2     1    20    1
     3     1     2    1
     4     2     3    1
     5     3     4    1
     6     4    11    1
     7    11    12   ar
     8    12    13   ar
     9    13    14   ar
    10    14    15    1
    11    14    16   ar
    12    16    17    1
    13    16    18   ar
    14     4     5    1
    15     5     6   ar
    16     6     7   ar
    17     7     8   ar
    18     8     9   ar
    19     9    10   ar
    20    10     1    1
    21    18    11   ar
    22    10     5   ar
    23    20    21    1
@<TRIPOS>MOLECULE
*****
 21 23 0 0 0
SMALL
GASTEIGER

@<TRIPOS>ATOM
      1 C         143.3876  143.5633  163.6527 C.3     1  UNL1        0.0798
      2 C         144.0185  142.5945  164.6083 C.3     1  UNL1        0.0421
      3 C         143.2142  142.0247  165.7390 C.3     1  UNL1        0.0973
      4 N         141.7789  142.4238  165.9141 N.pl3   1  UNL1       -0.2870
      5 C         141.1479  143.3927  164.9585 C.ar    1  UNL1        0.0488
      6 C         139.7127  143.7918  165.1336 C.ar    1  UNL1        0.0146
      7 C         139.0818  144.7607  164.1780 C.ar    1  UNL1        0.0013
      8 C         139.8861  145.3305  163.0473 C.ar    1  UNL1       -0.0002
      9 C         141.3213  144.9314  162.8722 C.ar    1  UNL1       -0.0017
     10 C         141.9523  143.9625  163.8278 C.ar    1  UNL1        0.0057
     11 C         140.9746  141.8541  167.0447 C.ar    1  UNL1        0.0525
     12 C         140.3046  140.5208  166.8913 C.ar    1  UNL1        0.0157
     13 C         139.5003  139.9510  168.0220 C.ar    1  UNL1        0.0135
     14 C         139.3659  140.7145  169.3061 C.ar    1  UNL1        0.0683
     15 CL        138.5616  140.1448  170.4368 Cl      1  UNL1       -0.0814
     16 C         140.0359  142.0478  169.4596 C.ar    1  UNL1        0.0694
     17 CL        139.9015  142.8113  170.7437 Cl      1  UNL1       -0.0813
     18 C         140.8402  142.6176  168.3289 C.ar    1  UNL1        0.0271
     19 C         144.6139  143.2525  161.3835 C.3     1  UNL1        0.0861
     20 N         144.1919  144.1331  162.5221 N.3     1  UNL1       -0.2939
     21 H         143.6392  144.8901  162.1197 H       1  UNL1        0.1235
@<TRIPOS>BOND
     1    19    20    1
     2     1    20    1
     3     1     2    1
     4     2     3    1
     5     3     4    1
     6     4    11    1
     7    11    12   ar
     8    12    13   ar
     9    13    14   ar
    10    14    15    1
    11    14    16   ar
    12    16    17    1
    13    16    18   ar
    14     4     5    1
    15     5     6   ar
    16     6     7   ar
    17     7     8   ar
    18     8     9   ar
    19     9    10   ar
    20    10     1    1
    21    18    11   ar
    22    10     5   ar
    23    20    21    1
@<TRIPOS>MOLECULE
*****
 21 23 0 0 0
SMALL
GASTEIGER

@<TRIPOS>ATOM
      1 C         142.7950  138.3290  163.2018 C.3     1  UNL1        0.0798
      2 C         143.9163  139.0132  163.9260 C.3     1  UNL1        0.0421
      3 C         143.6790  139.6135  165.2799 C.3     1  UNL1        0.0973
      4 N         142.3202  139.5298  165.9098 N.pl3   1  UNL1       -0.2870
      5 C         141.1987  138.8456  165.1856 C.ar    1  UNL1        0.0488
      6 C         139.8400  138.7618  165.8155 C.ar    1  UNL1        0.0146
      7 C         138.7186  138.0777  165.0914 C.ar    1  UNL1        0.0013
      8 C         138.9560  137.4773  163.7374 C.ar    1  UNL1       -0.0002
      9 C         140.3147  137.5610  163.1076 C.ar    1  UNL1       -0.0017
     10 C         141.4361  138.2452  163.8317 C.ar    1  UNL1        0.0057
     11 C         142.0828  140.1302  167.2637 C.ar    1  UNL1        0.0525
     12 C         142.5643  139.4199  168.4940 C.ar    1  UNL1        0.0157
     13 C         142.3270  140.0203  169.8479 C.ar    1  UNL1        0.0135
     14 C         141.6081  141.3309  169.9716 C.ar    1  UNL1        0.0683
     15 CL        141.3707  141.9313  171.3256 Cl      1  UNL1       -0.0814
     16 C         141.1265  142.0413  168.7413 C.ar    1  UNL1        0.0694
     17 CL        140.4077  143.3519  168.8650 Cl      1  UNL1       -0.0813
     18 C         141.3639  141.4409  167.3874 C.ar    1  UNL1        0.0271
     19 C         143.9506  138.4089  160.8763 C.3     1  UNL1        0.0861
     20 N         143.0323  137.7286  161.8479 N.3     1  UNL1       -0.2939
     21 H         143.4080  136.7930  162.0024 H       1  UNL1        0.1235
@<TRIPOS>BOND
     1    19    20    1
     2     1    20    1
     3     1     2    1
     4     2     3    1
     5     3     4    1
     6     4    11    1
     7    11    12   ar
     8    12    13   ar
     9    13    14   ar
    10    14    15    1
    11    14    16   ar
    12    16    17    1
    13    16    18   ar
    14     4     5    1
    15     5     6   ar
    16     6     7   ar
    17     7     8   ar
    18     8     9   ar
    19     9    10   ar
    20    10     1    1
    21    18    11   ar
    22    10     5   ar
    23    20    21    1
@<TRIPOS>MOLECULE
*****
 21 23 0 0 0
SMALL
GASTEIGER

@<TRIPOS>ATOM
      1 C         140.3034  144.6604  163.5201 C.3     1  UNL1        0.0798
      2 C         141.7246  144.7236  163.9955 C.3     1  UNL1        0.0421
      3 C         142.3723  143.5070  164.5873 C.3     1  UNL1        0.0973
      4 N         141.5987  142.2271  164.7038 N.pl3   1  UNL1       -0.2870
      5 C         140.1774  142.1639  164.2284 C.ar    1  UNL1        0.0488
      6 C         139.4039  140.8841  164.3449 C.ar    1  UNL1        0.0146
      7 C         137.9826  140.8209  163.8695 C.ar    1  UNL1        0.0013
      8 C         137.3350  142.0375  163.2776 C.ar    1  UNL1       -0.0002
      9 C         138.1085  143.3173  163.1611 C.ar    1  UNL1       -0.0017
     10 C         139.5297  143.3805  163.6365 C.ar    1  UNL1        0.0057
     11 C         142.2464  141.0105  165.2957 C.ar    1  UNL1        0.0525
     12 C         143.0410  140.0844  164.4233 C.ar    1  UNL1        0.0157
     13 C         143.6886  138.8678  165.0152 C.ar    1  UNL1        0.0135
     14 C         143.5418  138.5772  166.4794 C.ar    1  UNL1        0.0683
     15 CL        144.1895  137.3606  167.0713 Cl      1  UNL1       -0.0814
     16 C         142.7472  139.5034  167.3519 C.ar    1  UNL1        0.0694
     17 CL        142.6004  139.2128  168.8161 Cl      1  UNL1       -0.0813
     18 C         142.0995  140.7200  166.7600 C.ar    1  UNL1        0.0271
     19 C         139.8250  146.1822  161.4694 C.3     1  UNL1        0.0861
     20 N         139.6557  145.8771  162.9282 N.3     1  UNL1       -0.2939
     21 H         138.6535  145.7882  163.0960 H       1  UNL1        0.1235
@<TRIPOS>BOND
     1    19    20    1
     2     1    20    1
     3     1     2    1
     4     2     3    1
     5     3     4    1
     6     4    11    1
     7    11    12   ar
     8    12    13   ar
     9    13    14   ar
    10    14    15    1
    11    14    16   ar
    12    16    17    1
    13    16    18   ar
    14     4     5    1
    15     5     6   ar
    16     6     7   ar
    17     7     8   ar
    18     8     9   ar
    19     9    10   ar
    20    10     1    1
    21    18    11   ar
    22    10     5   ar
    23    20    21    1
@<TRIPOS>MOLECULE
*****
 21 23 0 0 0
SMALL
GASTEIGER

@<TRIPOS>ATOM
      1 C         138.4638  139.3120  167.0203 C.3     1  UNL1        0.0798
      2 C         138.6018  139.3577  165.5274 C.3     1  UNL1        0.0421
      3 C         139.5328  140.3462  164.8902 C.3     1  UNL1        0.0973
      4 N         140.3258  141.2890  165.7458 N.pl3   1  UNL1       -0.2870
      5 C         140.1879  141.2433  167.2388 C.ar    1  UNL1        0.0488
      6 C         140.9809  142.1861  168.0945 C.ar    1  UNL1        0.0146
      7 C         140.8429  142.1404  169.5874 C.ar    1  UNL1        0.0013
      8 C         139.9119  141.1519  170.2246 C.ar    1  UNL1       -0.0002
      9 C         139.1189  140.2091  169.3690 C.ar    1  UNL1       -0.0017
     10 C         139.2569  140.2548  167.8761 C.ar    1  UNL1        0.0057
     11 C         141.2568  142.2775  165.1086 C.ar    1  UNL1        0.0525
     12 C         140.7476  143.6244  164.6885 C.ar    1  UNL1        0.0157
     13 C         141.6786  144.6129  164.0513 C.ar    1  UNL1        0.0135
     14 C         143.1188  144.2545  163.8341 C.ar    1  UNL1        0.0683
     15 CL        144.0498  145.2430  163.1968 Cl      1  UNL1       -0.0814
     16 C         143.6281  142.9076  164.2541 C.ar    1  UNL1        0.0694
     17 CL        145.0684  142.5492  164.0369 Cl      1  UNL1       -0.0813
     18 C         142.6971  141.9190  164.8914 C.ar    1  UNL1        0.0271
     19 C         137.2808  136.9990  167.0002 C.3     1  UNL1        0.0861
     20 N         137.5328  138.3235  167.6576 N.3     1  UNL1       -0.2939
     21 H         137.9047  138.1252  168.5864 H       1  UNL1        0.1235
@<TRIPOS>BOND
     1    19    20    1
     2     1    20    1
     3     1     2    1
     4     2     3    1
     5     3     4    1
     6     4    11    1
     7    11    12   ar
     8    12    13   ar
     9    13    14   ar
    10    14    15    1
    11    14    16   ar
    12    16    17    1
    13    16    18   ar
    14     4     5    1
    15     5     6   ar
    16     6     7   ar
    17     7     8   ar
    18     8     9   ar
    19     9    10   ar
    20    10     1    1
    21    18    11   ar
    22    10     5   ar
    23    20    21    1
@<TRIPOS>MOLECULE
*****
 21 23 0 0 0
SMALL
GASTEIGER

@<TRIPOS>ATOM
      1 C         142.1801  144.2370  162.2886 C.3     1  UNL1        0.0798
      2 C         143.4480  143.5044  162.6136 C.3     1  UNL1        0.0421
      3 C         143.5301  142.6595  163.8502 C.3     1  UNL1        0.0973
      4 N         142.3443  142.5470  164.7618 N.pl3   1  UNL1       -0.2870
      5 C         141.0762  143.2796  164.4368 C.ar    1  UNL1        0.0488
      6 C         139.8904  143.1671  165.3485 C.ar    1  UNL1        0.0146
      7 C         138.6225  143.8996  165.0234 C.ar    1  UNL1        0.0013
      8 C         138.5404  144.7446  163.7868 C.ar    1  UNL1       -0.0002
      9 C         139.7262  144.8571  162.8752 C.ar    1  UNL1       -0.0017
     10 C         140.9941  144.1245  163.2002 C.ar    1  UNL1        0.0057
     11 C         142.4264  141.7020  165.9985 C.ar    1  UNL1        0.0525
     12 C         141.9939  140.2664  165.9560 C.ar    1  UNL1        0.0157
     13 C         142.0760  139.4214  167.1926 C.ar    1  UNL1        0.0135
     14 C         142.5906  140.0121  168.4718 C.ar    1  UNL1        0.0683
     15 CL        142.6727  139.1671  169.7084 Cl      1  UNL1       -0.0814
     16 C         143.0231  141.4478  168.5143 C.ar    1  UNL1        0.0694
     17 CL        143.5377  142.0385  169.7935 Cl      1  UNL1       -0.0813
     18 C         142.9410  142.2928  167.2777 C.ar    1  UNL1        0.0271
     19 C         141.5457  144.5029  159.7832 C.3     1  UNL1        0.0861
     20 N         142.0980  145.0819  161.0519 N.3     1  UNL1       -0.2939
     21 H         141.5183  145.8884  161.2843 H       1  UNL1        0.1235
@<TRIPOS>BOND
     1    19    20    1
     2     1    20    1
     3     1     2    1
     4     2     3    1
     5     3     4    1
     6     4    11    1
     7    11    12   ar
     8    12    13   ar
     9    13    14   ar
    10    14    15    1
    11    14    16   ar
    12    16    17    1
    13    16    18   ar
    14     4     5    1
    15     5     6   ar
    16     6     7   ar
    17     7     8   ar
    18     8     9   ar
    19     9    10   ar
    20    10     1    1
    21    18    11   ar
    22    10     5   ar
    23    20    21    1
@<TRIPOS>MOLECULE
*****
 21 23 0 0 0
SMALL
GASTEIGER

@<TRIPOS>ATOM
      1 C         141.9215  144.3508  162.5769 C.3     1  UNL1        0.0798
      2 C         140.8797  144.4775  163.6485 C.3     1  UNL1        0.0421
      3 C         140.9830  143.6517  164.8965 C.3     1  UNL1        0.0973
      4 N         142.1282  142.6992  165.0728 N.pl3   1  UNL1       -0.2870
      5 C         143.1702  142.5724  164.0011 C.ar    1  UNL1        0.0488
      6 C         144.3154  141.6199  164.1775 C.ar    1  UNL1        0.0146
      7 C         145.3572  141.4932  163.1058 C.ar    1  UNL1        0.0013
      8 C         145.2539  142.3190  161.8579 C.ar    1  UNL1       -0.0002
      9 C         144.1086  143.2715  161.6816 C.ar    1  UNL1       -0.0017
     10 C         143.0668  143.3982  162.7532 C.ar    1  UNL1        0.0057
     11 C         142.2316  141.8734  166.3208 C.ar    1  UNL1        0.0525
     12 C         141.5853  140.5211  166.3810 C.ar    1  UNL1        0.0157
     13 C         141.6887  139.6953  167.6289 C.ar    1  UNL1        0.0135
     14 C         142.4383  140.2218  168.8167 C.ar    1  UNL1        0.0683
     15 CL        142.5417  139.3960  170.0646 Cl      1  UNL1       -0.0814
     16 C         143.0847  141.5741  168.7565 C.ar    1  UNL1        0.0694
     17 CL        143.8344  142.1005  169.9442 Cl      1  UNL1       -0.0813
     18 C         142.9813  142.3999  167.5085 C.ar    1  UNL1        0.0271
     19 C         140.4721  145.4867  160.7442 C.3     1  UNL1        0.0861
     20 N         141.8181  145.1766  161.3290 N.3     1  UNL1       -0.2939
     21 H         142.2650  146.0712  161.5300 H       1  UNL1        0.1235
@<TRIPOS>BOND
     1    19    20    1
     2     1    20    1
     3     1     2    1
     4     2     3    1
     5     3     4    1
     6     4    11    1
     7    11    12   ar
     8    12    13   ar
     9    13    14   ar
    10    14    15    1
    11    14    16   ar
    12    16    17    1
    13    16    18   ar
    14     4     5    1
    15     5     6   ar
    16     6     7   ar
    17     7     8   ar
    18     8     9   ar
    19     9    10   ar
    20    10     1    1
    21    18    11   ar
    22    10     5   ar
    23    20    21    1
@<TRIPOS>MOLECULE
*****
 21 23 0 0 0
SMALL
GASTEIGER

@<TRIPOS>ATOM
      1 C         142.4772  140.2303  167.6957 C.3     1  UNL1        0.0798
      2 C         141.6883  141.4117  168.1770 C.3     1  UNL1        0.0421
      3 C         141.2088  142.4425  167.1984 C.3     1  UNL1        0.0973
      4 N         141.5183  142.2919  165.7385 N.pl3   1  UNL1       -0.2870
      5 C         142.3073  141.1104  165.2571 C.ar    1  UNL1        0.0488
      6 C         142.6168  140.9598  163.7971 C.ar    1  UNL1        0.0146
      7 C         143.4058  139.7784  163.3158 C.ar    1  UNL1        0.0013
      8 C         143.8852  138.7476  164.2944 C.ar    1  UNL1       -0.0002
      9 C         143.5757  138.8982  165.7543 C.ar    1  UNL1       -0.0017
     10 C         142.7868  140.0797  166.2357 C.ar    1  UNL1        0.0057
     11 C         141.0388  143.3227  164.7599 C.ar    1  UNL1        0.0525
     12 C         141.9996  144.3292  164.1998 C.ar    1  UNL1        0.0157
     13 C         141.5202  145.3599  163.2212 C.ar    1  UNL1        0.0135
     14 C         140.0799  145.3842  162.8028 C.ar    1  UNL1        0.0683
     15 CL        139.6005  146.4150  161.8242 Cl      1  UNL1       -0.0814
     16 C         139.1191  144.3777  163.3630 C.ar    1  UNL1        0.0694
     17 CL        137.6788  144.4020  162.9446 Cl      1  UNL1       -0.0813
     18 C         139.5985  143.3469  164.3415 C.ar    1  UNL1        0.0271
     19 C         142.3161  139.0940  170.0265 C.3     1  UNL1        0.0861
     20 N         142.9567  139.1996  168.6742 N.3     1  UNL1       -0.2939
     21 H         142.8448  138.2913  168.2237 H       1  UNL1        0.1235
@<TRIPOS>BOND
     1    19    20    1
     2     1    20    1
     3     1     2    1
     4     2     3    1
     5     3     4    1
     6     4    11    1
     7    11    12   ar
     8    12    13   ar
     9    13    14   ar
    10    14    15    1
    11    14    16   ar
    12    16    17    1
    13    16    18   ar
    14     4     5    1
    15     5     6   ar
    16     6     7   ar
    17     7     8   ar
    18     8     9   ar
    19     9    10   ar
    20    10     1    1
    21    18    11   ar
    22    10     5   ar
    23    20    21    1
