@<TRIPOS>MOLECULE
*****
 43 49 0 0 0
SMALL
GASTEIGER

@<TRIPOS>ATOM
      1 C         141.7767  138.6780  158.4138 C.ar    1  UNL1        0.0358
      2 C         140.3667  138.8310  157.9254 C.ar    1  UNL1        0.0029
      3 C         139.2507  139.0330  158.9071 C.ar    1  UNL1        0.0016
      4 C         139.5447  139.0819  160.3772 C.ar    1  UNL1        0.0174
      5 C         140.9546  138.9289  160.8656 C.ar    1  UNL1        0.0653
      6 C         142.0707  138.7269  159.8840 C.ar    1  UNL1        0.0261
      7 N         141.2486  138.9778  162.3358 N.ar    1  UNL1       -0.2733
      8 C         141.2419  137.7144  163.1444 C.ar    1  UNL1        0.0829
      9 C         141.5358  137.7633  164.6144 C.ar    1  UNL1        0.0193
     10 C         141.8364  139.0756  165.2759 C.ar    1  UNL1        0.0080
     11 C         142.1303  139.1245  166.7461 C.ar    1  UNL1       -0.0039
     12 C         142.4309  140.4367  167.4075 C.ar    1  UNL1       -0.0203
     13 C         142.4376  141.7001  166.5989 C.ar    1  UNL1        0.0255
     14 C         142.1437  141.6512  165.1289 C.ar    1  UNL1        0.1444
     15 F         142.1504  142.9146  164.3203 F       1  UNL1       -0.2040
     16 C         141.8431  140.3389  164.4673 C.ar    1  UNL1        0.0839
     17 C         141.5492  140.2900  162.9972 C.ar    1  UNL1        0.2668
     18 O         141.5559  141.5534  162.1886 O.2     1  UNL1       -0.2665
     19 C         142.7249  140.4857  168.8777 C.3     1  UNL1        0.0224
     20 C         143.3031  141.1989  170.0638 C.3     1  UNL1        0.0047
     21 C         142.6557  139.8571  170.2379 C.3     1  UNL1        0.0047
     22 N         145.9165  140.5144  155.8665 N.pl3   1  UNL1       -0.3273
     23 C         144.9627  139.3942  156.1585 C.ar    1  UNL1        0.2174
     24 N         145.1248  138.0721  155.4688 N.ar    1  UNL1       -0.1810
     25 C         144.1709  136.9519  155.7608 C.ar    1  UNL1        0.2244
     26 N         143.0549  137.1538  156.7425 N.ar    1  UNL1       -0.1943
     27 C         142.8927  138.4760  157.4321 C.ar    1  UNL1        0.1678
     28 N         143.8466  139.5962  157.1402 N.ar    1  UNL1       -0.1948
     29 H         146.6490  140.3818  155.2222 H       1  UNL1        0.1452
     30 H         145.8101  141.3822  156.3191 H       1  UNL1        0.1452
     31 N         144.3330  135.6297  155.0712 N.pl3   1  UNL1       -0.2800
     32 H         144.9368  135.5487  154.2978 H       1  UNL1        0.1552
     33 C         143.5753  134.4310  155.5599 C.ar    1  UNL1        0.0906
     34 C         143.5058  133.9502  156.9791 C.ar    1  UNL1        0.1363
     35 N         142.6416  132.7246  157.0115 N.ar    1  UNL1       -0.1664
     36 N         142.1770  132.4480  155.6123 N.ar    1  UNL1       -0.2500
     37 C         142.7540  133.5025  154.7152 C.ar    1  UNL1        0.1112
     38 C         141.2908  131.3155  155.1853 C.3     1  UNL1        0.1054
     39 C         139.9876  130.8248  154.6279 C.3     1  UNL1        0.0263
     40 C         141.0594  129.8447  155.0030 C.3     1  UNL1        0.0263
     41 C         143.4806  138.5738  160.3724 C.3     1  UNL1        0.1651
     42 O         143.9074  137.3030  161.0455 O.3     1  UNL1       -0.3772
     43 H         143.4331  137.2074  161.8862 H       1  UNL1        0.2109
@<TRIPOS>BOND
     1    22    23    1
     2    23    24   ar
     3    24    25   ar
     4    25    31    1
     5    31    33    1
     6    33    34   ar
     7    34    35   ar
     8    35    36   ar
     9    36    38    1
    10    38    39    1
    11    39    40    1
    12    36    37   ar
    13    25    26   ar
    14    26    27   ar
    15    27     1    1
    16     1     2   ar
    17     2     3   ar
    18     3     4   ar
    19     4     5   ar
    20     5     7    1
    21     7     8   ar
    22     8     9   ar
    23     9    10   ar
    24    10    11   ar
    25    11    12   ar
    26    12    19    1
    27    19    20    1
    28    20    21    1
    29    12    13   ar
    30    13    14   ar
    31    14    15    1
    32    14    16   ar
    33    16    17   ar
    34    17    18    2
    35     5     6   ar
    36     6    41    1
    37    41    42    1
    38    27    28   ar
    39    28    23   ar
    40    37    33   ar
    41     6     1   ar
    42    40    38    1
    43    17     7   ar
    44    16    10   ar
    45    21    19    1
    46    22    29    1
    47    22    30    1
    48    31    32    1
    49    42    43    1
@<TRIPOS>MOLECULE
*****
 43 49 0 0 0
SMALL
GASTEIGER

@<TRIPOS>ATOM
      1 C         142.6788  139.3784  158.8090 C.ar    1  UNL1        0.0358
      2 C         143.6272  140.4414  158.3394 C.ar    1  UNL1        0.0029
      3 C         143.9948  141.5745  159.2510 C.ar    1  UNL1        0.0016
      4 C         143.4141  141.6446  160.6322 C.ar    1  UNL1        0.0174
      5 C         142.4657  140.5816  161.1019 C.ar    1  UNL1        0.0653
      6 C         142.0980  139.4485  160.1903 C.ar    1  UNL1        0.0261
      7 N         141.8849  140.6517  162.4832 N.ar    1  UNL1       -0.2733
      8 C         140.6081  141.4016  162.7227 C.ar    1  UNL1        0.0829
      9 C         140.0274  141.4717  164.1039 C.ar    1  UNL1        0.0193
     10 C         140.7234  140.7919  165.2456 C.ar    1  UNL1        0.0080
     11 C         140.1427  140.8621  166.6269 C.ar    1  UNL1       -0.0039
     12 C         140.8387  140.1823  167.7685 C.ar    1  UNL1       -0.0203
     13 C         142.1155  139.4324  167.5289 C.ar    1  UNL1        0.0255
     14 C         142.6963  139.3622  166.1477 C.ar    1  UNL1        0.1444
     15 F         143.9731  138.6123  165.9081 F       1  UNL1       -0.2040
     16 C         142.0002  140.0420  165.0060 C.ar    1  UNL1        0.0839
     17 C         142.5810  139.9719  163.6248 C.ar    1  UNL1        0.2668
     18 O         143.8578  139.2220  163.3852 O.2     1  UNL1       -0.2665
     19 C         140.2580  140.2524  169.1498 C.3     1  UNL1        0.0224
     20 C         140.4231  140.1339  170.6359 C.3     1  UNL1        0.0047
     21 C         139.0870  140.4923  170.0560 C.3     1  UNL1        0.0047
     22 N         139.1129  136.8059  156.0403 N.pl3   1  UNL1       -0.3273
     23 C         140.5281  136.9591  156.5131 C.ar    1  UNL1        0.2174
     24 N         141.5757  135.9792  156.0743 N.ar    1  UNL1       -0.1810
     25 C         142.9910  136.1325  156.5472 C.ar    1  UNL1        0.2244
     26 N         143.3587  137.2655  157.4587 N.ar    1  UNL1       -0.1943
     27 C         142.3111  138.2454  157.8975 C.ar    1  UNL1        0.1678
     28 N         140.8958  138.0922  157.4247 N.ar    1  UNL1       -0.1948
     29 H         138.8715  136.0622  155.4420 H       1  UNL1        0.1452
     30 H         138.4253  137.4490  156.3283 H       1  UNL1        0.1452
     31 N         144.0386  135.1527  156.1084 N.pl3   1  UNL1       -0.2800
     32 H         144.8948  135.4767  155.7464 H       1  UNL1        0.1552
     33 C         143.7815  133.6792  156.2212 C.ar    1  UNL1        0.0906
     34 C         143.0324  132.8366  155.2318 C.ar    1  UNL1        0.1363
     35 N         143.0164  131.4262  155.7423 N.ar    1  UNL1       -0.1664
     36 N         143.7556  131.3972  157.0472 N.ar    1  UNL1       -0.2500
     37 C         144.2284  132.7896  157.3432 C.ar    1  UNL1        0.1112
     38 C         143.9821  130.1880  157.9055 C.3     1  UNL1        0.1054
     39 C         144.9147  129.2831  158.6548 C.3     1  UNL1        0.0263
     40 C         143.4419  128.9987  158.6428 C.3     1  UNL1        0.0263
     41 C         141.1496  138.3855  160.6600 C.3     1  UNL1        0.1651
     42 O         141.6422  137.2783  161.5440 O.3     1  UNL1       -0.3772
     43 H         142.2722  136.7282  161.0527 H       1  UNL1        0.2109
@<TRIPOS>BOND
     1    22    23    1
     2    23    24   ar
     3    24    25   ar
     4    25    31    1
     5    31    33    1
     6    33    34   ar
     7    34    35   ar
     8    35    36   ar
     9    36    38    1
    10    38    39    1
    11    39    40    1
    12    36    37   ar
    13    25    26   ar
    14    26    27   ar
    15    27     1    1
    16     1     2   ar
    17     2     3   ar
    18     3     4   ar
    19     4     5   ar
    20     5     7    1
    21     7     8   ar
    22     8     9   ar
    23     9    10   ar
    24    10    11   ar
    25    11    12   ar
    26    12    19    1
    27    19    20    1
    28    20    21    1
    29    12    13   ar
    30    13    14   ar
    31    14    15    1
    32    14    16   ar
    33    16    17   ar
    34    17    18    2
    35     5     6   ar
    36     6    41    1
    37    41    42    1
    38    27    28   ar
    39    28    23   ar
    40    37    33   ar
    41     6     1   ar
    42    40    38    1
    43    17     7   ar
    44    16    10   ar
    45    21    19    1
    46    22    29    1
    47    22    30    1
    48    31    32    1
    49    42    43    1
@<TRIPOS>MOLECULE
*****
 43 49 0 0 0
SMALL
GASTEIGER

@<TRIPOS>ATOM
      1 C         141.9402  139.0344  158.4041 C.ar    1  UNL1        0.0358
      2 C         140.5200  138.7578  158.0087 C.ar    1  UNL1        0.0029
      3 C         139.4106  138.9782  158.9940 C.ar    1  UNL1        0.0016
      4 C         139.7215  139.4753  160.3746 C.ar    1  UNL1        0.0174
      5 C         141.1418  139.7520  160.7700 C.ar    1  UNL1        0.0653
      6 C         142.2511  139.5315  159.7848 C.ar    1  UNL1        0.0261
      7 N         141.4527  140.2491  162.1507 N.ar    1  UNL1       -0.2733
      8 C         141.4511  141.7217  162.4357 C.ar    1  UNL1        0.0829
      9 C         141.7619  142.2189  163.8163 C.ar    1  UNL1        0.0193
     10 C         142.0744  141.2433  164.9120 C.ar    1  UNL1        0.0080
     11 C         142.3852  141.7404  166.2927 C.ar    1  UNL1       -0.0039
     12 C         142.6977  140.7649  167.3884 C.ar    1  UNL1       -0.0203
     13 C         142.6993  139.2922  167.1035 C.ar    1  UNL1        0.0255
     14 C         142.3884  138.7950  165.7229 C.ar    1  UNL1        0.1444
     15 F         142.3900  137.3224  165.4379 F       1  UNL1       -0.2040
     16 C         142.0760  139.7706  164.6271 C.ar    1  UNL1        0.0839
     17 C         141.7651  139.2735  163.2464 C.ar    1  UNL1        0.2668
     18 O         141.7667  137.8008  162.9615 O.2     1  UNL1       -0.2665
     19 C         143.0086  141.2620  168.7691 C.3     1  UNL1        0.0224
     20 C         142.8956  141.1175  170.2579 C.3     1  UNL1        0.0047
     21 C         143.6600  142.2674  169.6718 C.3     1  UNL1        0.0047
     22 N         146.1009  140.8025  155.8424 N.pl3   1  UNL1       -0.3273
     23 C         145.1300  139.6980  156.1380 C.ar    1  UNL1        0.2174
     24 N         145.2683  138.3732  155.4483 N.ar    1  UNL1       -0.1810
     25 C         144.2973  137.2687  155.7440 C.ar    1  UNL1        0.2244
     26 N         143.1880  137.4891  156.7292 N.ar    1  UNL1       -0.1943
     27 C         143.0496  138.8140  157.4188 C.ar    1  UNL1        0.1678
     28 N         144.0205  139.9184  157.1232 N.ar    1  UNL1       -0.1948
     29 H         146.8290  140.6578  155.1957 H       1  UNL1        0.1452
     30 H         146.0101  141.6720  156.2950 H       1  UNL1        0.1452
     31 N         144.4357  135.9438  155.0544 N.pl3   1  UNL1       -0.2800
     32 H         145.0155  135.8589  154.2632 H       1  UNL1        0.1552
     33 C         143.6908  134.7484  155.5701 C.ar    1  UNL1        0.0906
     34 C         143.6016  134.3162  157.0038 C.ar    1  UNL1        0.1363
     35 N         142.7600  133.0760  157.0625 N.ar    1  UNL1       -0.1664
     36 N         142.3290  132.7417  155.6651 N.ar    1  UNL1       -0.2500
     37 C         142.9043  133.7753  154.7428 C.ar    1  UNL1        0.1112
     38 C         141.4730  131.5780  155.2610 C.3     1  UNL1        0.1054
     39 C         140.2155  131.0434  154.6423 C.3     1  UNL1        0.0263
     40 C         141.2480  130.0972  155.1798 C.3     1  UNL1        0.0263
     41 C         143.6714  139.8082  160.1802 C.3     1  UNL1        0.1651
     42 O         144.4547  138.7750  160.9347 O.3     1  UNL1       -0.3772
     43 H         144.0630  138.6502  161.8132 H       1  UNL1        0.2109
@<TRIPOS>BOND
     1    22    23    1
     2    23    24   ar
     3    24    25   ar
     4    25    31    1
     5    31    33    1
     6    33    34   ar
     7    34    35   ar
     8    35    36   ar
     9    36    38    1
    10    38    39    1
    11    39    40    1
    12    36    37   ar
    13    25    26   ar
    14    26    27   ar
    15    27     1    1
    16     1     2   ar
    17     2     3   ar
    18     3     4   ar
    19     4     5   ar
    20     5     7    1
    21     7     8   ar
    22     8     9   ar
    23     9    10   ar
    24    10    11   ar
    25    11    12   ar
    26    12    19    1
    27    19    20    1
    28    20    21    1
    29    12    13   ar
    30    13    14   ar
    31    14    15    1
    32    14    16   ar
    33    16    17   ar
    34    17    18    2
    35     5     6   ar
    36     6    41    1
    37    41    42    1
    38    27    28   ar
    39    28    23   ar
    40    37    33   ar
    41     6     1   ar
    42    40    38    1
    43    17     7   ar
    44    16    10   ar
    45    21    19    1
    46    22    29    1
    47    22    30    1
    48    31    32    1
    49    42    43    1
@<TRIPOS>MOLECULE
*****
 43 49 0 0 0
SMALL
GASTEIGER

@<TRIPOS>ATOM
      1 C         143.1643  140.3866  158.7064 C.ar    1  UNL1        0.0358
      2 C         144.1080  141.3516  158.0520 C.ar    1  UNL1        0.0029
      3 C         144.7292  142.4552  158.8560 C.ar    1  UNL1        0.0016
      4 C         144.4067  142.5937  160.3143 C.ar    1  UNL1        0.0174
      5 C         143.4630  141.6287  160.9687 C.ar    1  UNL1        0.0653
      6 C         142.8418  140.5252  160.1648 C.ar    1  UNL1        0.0261
      7 N         143.1406  141.7673  162.4272 N.ar    1  UNL1       -0.2733
      8 C         144.1239  141.3026  163.4601 C.ar    1  UNL1        0.0829
      9 C         143.8015  141.4411  164.9185 C.ar    1  UNL1        0.0193
     10 C         142.4957  142.0444  165.3438 C.ar    1  UNL1        0.0080
     11 C         142.1732  142.1830  166.8022 C.ar    1  UNL1       -0.0039
     12 C         140.8674  142.7863  167.2276 C.ar    1  UNL1       -0.0203
     13 C         139.8841  143.2510  166.1946 C.ar    1  UNL1        0.0255
     14 C         140.2065  143.1125  164.7363 C.ar    1  UNL1        0.1444
     15 F         139.2232  143.5772  163.7033 F       1  UNL1       -0.2040
     16 C         141.5124  142.5092  164.3108 C.ar    1  UNL1        0.0839
     17 C         141.8348  142.3706  162.8525 C.ar    1  UNL1        0.2668
     18 O         140.8515  142.8354  161.8195 O.2     1  UNL1       -0.2665
     19 C         140.5450  142.9249  168.6860 C.3     1  UNL1        0.0224
     20 C         140.1019  142.3138  169.9822 C.3     1  UNL1        0.0047
     21 C         140.4295  143.7760  169.9157 C.3     1  UNL1        0.0047
     22 N         138.9868  138.2427  156.4813 N.pl3   1  UNL1       -0.3273
     23 C         140.4543  138.2111  156.7899 C.ar    1  UNL1        0.2174
     24 N         141.3007  137.0760  156.2947 N.ar    1  UNL1       -0.1810
     25 C         142.7683  137.0445  156.6033 C.ar    1  UNL1        0.2244
     26 N         143.3895  138.1481  157.4072 N.ar    1  UNL1       -0.1943
     27 C         142.5431  139.2831  157.9025 C.ar    1  UNL1        0.1678
     28 N         141.0756  139.3147  157.5939 N.ar    1  UNL1       -0.1948
     29 H         138.5791  137.5184  155.9537 H       1  UNL1        0.1452
     30 H         138.4313  138.9877  156.8064 H       1  UNL1        0.1452
     31 N         143.6146  135.9095  156.1080 N.pl3   1  UNL1       -0.2800
     32 H         144.4878  136.0918  155.6915 H       1  UNL1        0.1552
     33 C         143.1306  134.4966  156.2474 C.ar    1  UNL1        0.0906
     34 C         143.3750  133.5924  157.4190 C.ar    1  UNL1        0.1363
     35 N         142.7126  132.2768  157.1353 N.ar    1  UNL1       -0.1664
     36 N         142.0588  132.3680  155.7884 N.ar    1  UNL1       -0.2500
     37 C         142.3171  133.7399  155.2396 C.ar    1  UNL1        0.1112
     38 C         141.2828  131.2785  155.1094 C.3     1  UNL1        0.1054
     39 C         140.1647  130.8491  154.2064 C.3     1  UNL1        0.0263
     40 C         141.0570  129.8210  154.8364 C.3     1  UNL1        0.0263
     41 C         141.8982  139.5602  160.8192 C.3     1  UNL1        0.1651
     42 O         140.4244  139.8396  160.8250 O.3     1  UNL1       -0.3772
     43 H         140.2469  140.6286  161.3605 H       1  UNL1        0.2109
@<TRIPOS>BOND
     1    22    23    1
     2    23    24   ar
     3    24    25   ar
     4    25    31    1
     5    31    33    1
     6    33    34   ar
     7    34    35   ar
     8    35    36   ar
     9    36    38    1
    10    38    39    1
    11    39    40    1
    12    36    37   ar
    13    25    26   ar
    14    26    27   ar
    15    27     1    1
    16     1     2   ar
    17     2     3   ar
    18     3     4   ar
    19     4     5   ar
    20     5     7    1
    21     7     8   ar
    22     8     9   ar
    23     9    10   ar
    24    10    11   ar
    25    11    12   ar
    26    12    19    1
    27    19    20    1
    28    20    21    1
    29    12    13   ar
    30    13    14   ar
    31    14    15    1
    32    14    16   ar
    33    16    17   ar
    34    17    18    2
    35     5     6   ar
    36     6    41    1
    37    41    42    1
    38    27    28   ar
    39    28    23   ar
    40    37    33   ar
    41     6     1   ar
    42    40    38    1
    43    17     7   ar
    44    16    10   ar
    45    21    19    1
    46    22    29    1
    47    22    30    1
    48    31    32    1
    49    42    43    1
@<TRIPOS>MOLECULE
*****
 43 49 0 0 0
SMALL
GASTEIGER

@<TRIPOS>ATOM
      1 C         139.7237  140.9348  158.1895 C.ar    1  UNL1        0.0358
      2 C         140.9774  140.3704  157.5896 C.ar    1  UNL1        0.0029
      3 C         142.1072  139.9420  158.4784 C.ar    1  UNL1        0.0016
      4 C         141.9834  140.0779  159.9671 C.ar    1  UNL1        0.0174
      5 C         140.7298  140.6424  160.5670 C.ar    1  UNL1        0.0653
      6 C         139.6000  141.0708  159.6782 C.ar    1  UNL1        0.0261
      7 N         140.6060  140.7784  162.0557 N.ar    1  UNL1       -0.2733
      8 C         141.1802  141.9779  162.7496 C.ar    1  UNL1        0.0829
      9 C         141.0565  142.1139  164.2382 C.ar    1  UNL1        0.0193
     10 C         140.3586  141.0504  165.0330 C.ar    1  UNL1        0.0080
     11 C         140.2348  141.1864  166.5218 C.ar    1  UNL1       -0.0039
     12 C         139.5369  140.1229  167.3166 C.ar    1  UNL1       -0.0203
     13 C         138.9626  138.9234  166.6228 C.ar    1  UNL1        0.0255
     14 C         139.0864  138.7873  165.1341 C.ar    1  UNL1        0.1444
     15 F         138.5122  137.5878  164.4403 F       1  UNL1       -0.2040
     16 C         139.7843  139.8509  164.3392 C.ar    1  UNL1        0.0839
     17 C         139.9081  139.7149  162.8506 C.ar    1  UNL1        0.2668
     18 O         139.3339  138.5153  162.1567 O.2     1  UNL1       -0.2665
     19 C         139.4131  140.2589  168.8053 C.3     1  UNL1        0.0224
     20 C         140.0521  140.4242  170.1523 C.3     1  UNL1        0.0047
     21 C         138.5597  140.3290  170.0369 C.3     1  UNL1        0.0047
     22 N         137.3797  144.5913  155.3373 N.pl3   1  UNL1       -0.3273
     23 C         137.4219  143.1915  155.8746 C.ar    1  UNL1        0.2174
     24 N         136.3343  142.2202  155.5232 N.ar    1  UNL1       -0.1810
     25 C         136.3765  140.8203  156.0606 C.ar    1  UNL1        0.2244
     26 N         137.5063  140.3919  156.9493 N.ar    1  UNL1       -0.1943
     27 C         138.5939  141.3632  157.3008 C.ar    1  UNL1        0.1678
     28 N         138.5518  142.7630  156.7634 N.ar    1  UNL1       -0.1948
     29 H         136.6382  144.8725  154.7539 H       1  UNL1        0.1452
     30 H         138.0936  145.2288  155.5679 H       1  UNL1        0.1452
     31 N         135.2888  139.8490  155.7092 N.pl3   1  UNL1       -0.2800
     32 H         135.5142  138.9908  155.2825 H       1  UNL1        0.1552
     33 C         133.8578  140.1850  156.0079 C.ar    1  UNL1        0.0906
     34 C         133.0555  139.6733  157.1673 C.ar    1  UNL1        0.1363
     35 N         131.6797  140.2638  157.0756 N.ar    1  UNL1       -0.1664
     36 N         131.6318  141.1406  155.8594 N.ar    1  UNL1       -0.2500
     37 C         132.9779  141.0919  155.1996 C.ar    1  UNL1        0.1112
     38 C         130.4459  141.9278  155.3862 C.3     1  UNL1        0.1054
     39 C         129.8054  143.2460  155.0664 C.3     1  UNL1        0.0263
     40 C         129.0323  141.9732  154.8865 C.3     1  UNL1        0.0263
     41 C         138.3464  141.6352  160.2781 C.3     1  UNL1        0.1651
     42 O         138.3154  143.0591  160.7491 O.3     1  UNL1       -0.3772
     43 H         138.9173  143.1636  161.5026 H       1  UNL1        0.2109
@<TRIPOS>BOND
     1    22    23    1
     2    23    24   ar
     3    24    25   ar
     4    25    31    1
     5    31    33    1
     6    33    34   ar
     7    34    35   ar
     8    35    36   ar
     9    36    38    1
    10    38    39    1
    11    39    40    1
    12    36    37   ar
    13    25    26   ar
    14    26    27   ar
    15    27     1    1
    16     1     2   ar
    17     2     3   ar
    18     3     4   ar
    19     4     5   ar
    20     5     7    1
    21     7     8   ar
    22     8     9   ar
    23     9    10   ar
    24    10    11   ar
    25    11    12   ar
    26    12    19    1
    27    19    20    1
    28    20    21    1
    29    12    13   ar
    30    13    14   ar
    31    14    15    1
    32    14    16   ar
    33    16    17   ar
    34    17    18    2
    35     5     6   ar
    36     6    41    1
    37    41    42    1
    38    27    28   ar
    39    28    23   ar
    40    37    33   ar
    41     6     1   ar
    42    40    38    1
    43    17     7   ar
    44    16    10   ar
    45    21    19    1
    46    22    29    1
    47    22    30    1
    48    31    32    1
    49    42    43    1
@<TRIPOS>MOLECULE
*****
 43 49 0 0 0
SMALL
GASTEIGER

@<TRIPOS>ATOM
      1 C         139.7317  139.9540  158.3171 C.ar    1  UNL1        0.0358
      2 C         140.9739  139.3043  157.7833 C.ar    1  UNL1        0.0029
      3 C         141.9265  138.6236  158.7211 C.ar    1  UNL1        0.0016
      4 C         141.6369  138.5927  160.1925 C.ar    1  UNL1        0.0174
      5 C         140.3947  139.2424  160.7263 C.ar    1  UNL1        0.0653
      6 C         139.4422  139.9230  159.7886 C.ar    1  UNL1        0.0261
      7 N         140.1052  139.2114  162.1978 N.ar    1  UNL1       -0.2733
      8 C         139.3797  138.0422  162.7949 C.ar    1  UNL1        0.0829
      9 C         139.0901  138.0112  164.2664 C.ar    1  UNL1        0.0193
     10 C         139.5260  139.1494  165.1406 C.ar    1  UNL1        0.0080
     11 C         139.2365  139.1185  166.6121 C.ar    1  UNL1       -0.0039
     12 C         139.6723  140.2567  167.4864 C.ar    1  UNL1       -0.0203
     13 C         140.3978  141.4259  166.8892 C.ar    1  UNL1        0.0255
     14 C         140.6874  141.4569  165.4178 C.ar    1  UNL1        0.1444
     15 F         141.4128  142.6262  164.8207 F       1  UNL1       -0.2040
     16 C         140.2515  140.3186  164.5435 C.ar    1  UNL1        0.0839
     17 C         140.5411  140.3496  163.0720 C.ar    1  UNL1        0.2668
     18 O         141.2665  141.5189  162.4749 O.2     1  UNL1       -0.2665
     19 C         139.3828  140.2257  168.9579 C.3     1  UNL1        0.0224
     20 C         139.8675  140.1728  170.3764 C.3     1  UNL1        0.0047
     21 C         138.3965  140.2251  170.0880 C.3     1  UNL1        0.0047
     22 N         138.1817  144.2225  155.7919 N.pl3   1  UNL1       -0.3273
     23 C         138.0041  142.7690  156.1168 C.ar    1  UNL1        0.2174
     24 N         136.8740  141.9961  155.5041 N.ar    1  UNL1       -0.1810
     25 C         136.6965  140.5424  155.8290 C.ar    1  UNL1        0.2244
     26 N         137.6490  139.8618  156.7667 N.ar    1  UNL1       -0.1943
     27 C         138.7792  140.6347  157.3794 C.ar    1  UNL1        0.1678
     28 N         138.9567  142.0882  157.0545 N.ar    1  UNL1       -0.1948
     29 H         137.5565  144.6693  155.1765 H       1  UNL1        0.1452
     30 H         138.9234  144.7298  156.1941 H       1  UNL1        0.1452
     31 N         135.5664  139.7696  155.2162 N.pl3   1  UNL1       -0.2800
     32 H         135.7532  139.0695  154.5497 H       1  UNL1        0.1552
     33 C         134.1516  140.0632  155.6191 C.ar    1  UNL1        0.0906
     34 C         133.3592  141.2772  155.2340 C.ar    1  UNL1        0.1363
     35 N         131.9987  141.1588  155.8546 N.ar    1  UNL1       -0.1664
     36 N         131.9504  139.8715  156.6232 N.ar    1  UNL1       -0.2500
     37 C         133.2810  139.1945  156.4776 C.ar    1  UNL1        0.1112
     38 C         130.7774  139.3525  157.4009 C.3     1  UNL1        0.1054
     39 C         129.3162  139.4024  157.7357 C.3     1  UNL1        0.0263
     40 C         130.2071  138.4035  158.4129 C.3     1  UNL1        0.0263
     41 C         138.2000  140.5728  160.3224 C.3     1  UNL1        0.1651
     42 O         136.9958  139.7381  160.6437 O.3     1  UNL1       -0.3772
     43 H         136.6403  139.3552  159.8264 H       1  UNL1        0.2109
@<TRIPOS>BOND
     1    22    23    1
     2    23    24   ar
     3    24    25   ar
     4    25    31    1
     5    31    33    1
     6    33    34   ar
     7    34    35   ar
     8    35    36   ar
     9    36    38    1
    10    38    39    1
    11    39    40    1
    12    36    37   ar
    13    25    26   ar
    14    26    27   ar
    15    27     1    1
    16     1     2   ar
    17     2     3   ar
    18     3     4   ar
    19     4     5   ar
    20     5     7    1
    21     7     8   ar
    22     8     9   ar
    23     9    10   ar
    24    10    11   ar
    25    11    12   ar
    26    12    19    1
    27    19    20    1
    28    20    21    1
    29    12    13   ar
    30    13    14   ar
    31    14    15    1
    32    14    16   ar
    33    16    17   ar
    34    17    18    2
    35     5     6   ar
    36     6    41    1
    37    41    42    1
    38    27    28   ar
    39    28    23   ar
    40    37    33   ar
    41     6     1   ar
    42    40    38    1
    43    17     7   ar
    44    16    10   ar
    45    21    19    1
    46    22    29    1
    47    22    30    1
    48    31    32    1
    49    42    43    1
@<TRIPOS>MOLECULE
*****
 43 49 0 0 0
SMALL
GASTEIGER

@<TRIPOS>ATOM
      1 C         140.7278  139.5115  157.9068 C.ar    1  UNL1        0.0358
      2 C         139.5209  140.0031  157.1641 C.ar    1  UNL1        0.0029
      3 C         138.2759  140.3707  157.9159 C.ar    1  UNL1        0.0016
      4 C         138.2380  140.2468  159.4102 C.ar    1  UNL1        0.0174
      5 C         139.4449  139.7552  160.1529 C.ar    1  UNL1        0.0653
      6 C         140.6898  139.3875  159.4013 C.ar    1  UNL1        0.0261
      7 N         139.4069  139.6312  161.6474 N.ar    1  UNL1       -0.2733
      8 C         138.9188  138.3630  162.2826 C.ar    1  UNL1        0.0829
      9 C         138.8808  138.2391  163.7769 C.ar    1  UNL1        0.0193
     10 C         139.3309  139.3832  164.6361 C.ar    1  UNL1        0.0080
     11 C         139.2929  139.2593  166.1305 C.ar    1  UNL1       -0.0039
     12 C         139.7430  140.4035  166.9896 C.ar    1  UNL1       -0.0203
     13 C         140.2311  141.6717  166.3544 C.ar    1  UNL1        0.0255
     14 C         140.2692  141.7957  164.8601 C.ar    1  UNL1        0.1444
     15 F         140.7573  143.0638  164.2249 F       1  UNL1       -0.2040
     16 C         139.8190  140.6514  164.0009 C.ar    1  UNL1        0.0839
     17 C         139.8570  140.7754  162.5065 C.ar    1  UNL1        0.2668
     18 O         140.3452  142.0436  161.8713 O.2     1  UNL1       -0.2665
     19 C         139.7050  140.2795  168.4841 C.3     1  UNL1        0.0224
     20 C         138.9474  140.3652  169.7759 C.3     1  UNL1        0.0047
     21 C         140.3969  139.9792  169.7806 C.3     1  UNL1        0.0047
     22 N         145.6739  140.4816  156.6442 N.pl3   1  UNL1       -0.3273
     23 C         144.4458  139.6289  156.5238 C.ar    1  UNL1        0.2174
     24 N         144.4626  138.4085  155.6518 N.ar    1  UNL1       -0.1810
     25 C         143.2344  137.5558  155.5315 C.ar    1  UNL1        0.2244
     26 N         141.9895  137.9234  156.2831 N.ar    1  UNL1       -0.1943
     27 C         141.9727  139.1438  157.1552 C.ar    1  UNL1        0.1678
     28 N         143.2008  139.9965  157.2755 N.ar    1  UNL1       -0.1948
     29 H         146.4910  140.2403  156.1509 H       1  UNL1        0.1452
     30 H         145.6629  141.2826  157.2165 H       1  UNL1        0.1452
     31 N         143.2511  136.3354  154.6595 N.pl3   1  UNL1       -0.2800
     32 H         143.5343  136.4061  153.7192 H       1  UNL1        0.1552
     33 C         142.8365  135.0073  155.2200 C.ar    1  UNL1        0.0906
     34 C         143.0853  134.5238  156.6180 C.ar    1  UNL1        0.1363
     35 N         142.5028  133.1473  156.7430 N.ar    1  UNL1       -0.1664
     36 N         141.8939  132.7800  155.4222 N.ar    1  UNL1       -0.2500
     37 C         142.1001  133.9296  154.4810 C.ar    1  UNL1        0.1112
     38 C         141.2005  131.4896  155.0993 C.3     1  UNL1        0.1054
     39 C         141.2265  129.9943  154.9846 C.3     1  UNL1        0.0263
     40 C         139.9735  130.7501  154.6548 C.3     1  UNL1        0.0263
     41 C         141.8968  138.8959  160.1440 C.3     1  UNL1        0.1651
     42 O         143.0218  139.8383  160.4542 O.3     1  UNL1       -0.3772
     43 H         143.4438  140.1213  159.6279 H       1  UNL1        0.2109
@<TRIPOS>BOND
     1    22    23    1
     2    23    24   ar
     3    24    25   ar
     4    25    31    1
     5    31    33    1
     6    33    34   ar
     7    34    35   ar
     8    35    36   ar
     9    36    38    1
    10    38    39    1
    11    39    40    1
    12    36    37   ar
    13    25    26   ar
    14    26    27   ar
    15    27     1    1
    16     1     2   ar
    17     2     3   ar
    18     3     4   ar
    19     4     5   ar
    20     5     7    1
    21     7     8   ar
    22     8     9   ar
    23     9    10   ar
    24    10    11   ar
    25    11    12   ar
    26    12    19    1
    27    19    20    1
    28    20    21    1
    29    12    13   ar
    30    13    14   ar
    31    14    15    1
    32    14    16   ar
    33    16    17   ar
    34    17    18    2
    35     5     6   ar
    36     6    41    1
    37    41    42    1
    38    27    28   ar
    39    28    23   ar
    40    37    33   ar
    41     6     1   ar
    42    40    38    1
    43    17     7   ar
    44    16    10   ar
    45    21    19    1
    46    22    29    1
    47    22    30    1
    48    31    32    1
    49    42    43    1
@<TRIPOS>MOLECULE
*****
 43 49 0 0 0
SMALL
GASTEIGER

@<TRIPOS>ATOM
      1 C         142.3134  142.5097  166.1971 C.ar    1  UNL1        0.0358
      2 C         143.7313  142.8472  166.5517 C.ar    1  UNL1        0.0029
      3 C         144.5553  143.6919  165.6256 C.ar    1  UNL1        0.0016
      4 C         143.9614  144.1990  164.3450 C.ar    1  UNL1        0.0174
      5 C         142.5436  143.8615  163.9904 C.ar    1  UNL1        0.0653
      6 C         141.7196  143.0169  164.9164 C.ar    1  UNL1        0.0261
      7 N         141.9497  144.3687  162.7096 N.ar    1  UNL1       -0.2733
      8 C         140.8575  145.3964  162.7446 C.ar    1  UNL1        0.0829
      9 C         140.2637  145.9036  161.4640 C.ar    1  UNL1        0.0193
     10 C         140.7620  145.3831  160.1484 C.ar    1  UNL1        0.0080
     11 C         140.1681  145.8903  158.8677 C.ar    1  UNL1       -0.0039
     12 C         140.6664  145.3699  157.5521 C.ar    1  UNL1       -0.0203
     13 C         141.7585  144.3423  157.5171 C.ar    1  UNL1        0.0255
     14 C         142.3524  143.8351  158.7977 C.ar    1  UNL1        0.1444
     15 F         143.4445  142.8075  158.7628 F       1  UNL1       -0.2040
     16 C         141.8541  144.3555  160.1134 C.ar    1  UNL1        0.0839
     17 C         142.4480  143.8483  161.3941 C.ar    1  UNL1        0.2668
     18 O         143.5401  142.8207  161.3591 O.2     1  UNL1       -0.2665
     19 C         140.0725  145.8771  156.2714 C.3     1  UNL1        0.0224
     20 C         138.8886  146.0473  155.3662 C.3     1  UNL1        0.0047
     21 C         140.2279  146.5854  154.9583 C.3     1  UNL1        0.0047
     22 N         141.1719  140.9033  171.0050 N.pl3   1  UNL1       -0.3273
     23 C         140.9186  140.8618  169.5271 C.ar    1  UNL1        0.2174
     24 N         139.8414  139.9758  168.9753 N.ar    1  UNL1       -0.1810
     25 C         139.5882  139.9344  167.4973 C.ar    1  UNL1        0.2244
     26 N         140.4122  140.7790  166.5713 N.ar    1  UNL1       -0.1943
     27 C         141.4894  141.6651  167.1231 C.ar    1  UNL1        0.1678
     28 N         141.7427  141.7065  168.6010 N.ar    1  UNL1       -0.1948
     29 H         140.6310  140.3489  171.6128 H       1  UNL1        0.1452
     30 H         141.8789  141.4848  171.3671 H       1  UNL1        0.1452
     31 N         138.5110  139.0483  166.9455 N.pl3   1  UNL1       -0.2800
     32 H         137.7782  138.7433  167.5278 H       1  UNL1        0.1552
     33 C         138.5504  138.6270  165.5064 C.ar    1  UNL1        0.0906
     34 C         138.9052  137.2616  164.9969 C.ar    1  UNL1        0.1363
     35 N         138.8160  137.2878  163.4998 N.ar    1  UNL1       -0.1664
     36 N         138.4060  138.6696  163.0841 N.ar    1  UNL1       -0.2500
     37 C         138.2418  139.4972  164.3243 C.ar    1  UNL1        0.1112
     38 C         138.1968  139.1409  161.6755 C.3     1  UNL1        0.1054
     39 C         138.6658  139.2343  160.2538 C.3     1  UNL1        0.0263
     40 C         137.3655  139.8638  160.6575 C.3     1  UNL1        0.0263
     41 C         140.3017  142.6794  164.5618 C.3     1  UNL1        0.1651
     42 O         139.1690  143.3864  165.2454 O.3     1  UNL1       -0.3772
     43 H         139.1615  143.1507  166.1863 H       1  UNL1        0.2109
@<TRIPOS>BOND
     1    22    23    1
     2    23    24   ar
     3    24    25   ar
     4    25    31    1
     5    31    33    1
     6    33    34   ar
     7    34    35   ar
     8    35    36   ar
     9    36    38    1
    10    38    39    1
    11    39    40    1
    12    36    37   ar
    13    25    26   ar
    14    26    27   ar
    15    27     1    1
    16     1     2   ar
    17     2     3   ar
    18     3     4   ar
    19     4     5   ar
    20     5     7    1
    21     7     8   ar
    22     8     9   ar
    23     9    10   ar
    24    10    11   ar
    25    11    12   ar
    26    12    19    1
    27    19    20    1
    28    20    21    1
    29    12    13   ar
    30    13    14   ar
    31    14    15    1
    32    14    16   ar
    33    16    17   ar
    34    17    18    2
    35     5     6   ar
    36     6    41    1
    37    41    42    1
    38    27    28   ar
    39    28    23   ar
    40    37    33   ar
    41     6     1   ar
    42    40    38    1
    43    17     7   ar
    44    16    10   ar
    45    21    19    1
    46    22    29    1
    47    22    30    1
    48    31    32    1
    49    42    43    1
@<TRIPOS>MOLECULE
*****
 43 49 0 0 0
SMALL
GASTEIGER

@<TRIPOS>ATOM
      1 C         140.1136  140.1545  158.6400 C.ar    1  UNL1        0.0358
      2 C         139.2880  141.2666  158.0640 C.ar    1  UNL1        0.0029
      3 C         138.4819  142.1492  158.9703 C.ar    1  UNL1        0.0016
      4 C         138.5014  141.9197  160.4525 C.ar    1  UNL1        0.0174
      5 C         139.3270  140.8076  161.0285 C.ar    1  UNL1        0.0653
      6 C         140.1330  139.9250  160.1223 C.ar    1  UNL1        0.0261
      7 N         139.3465  140.5781  162.5108 N.ar    1  UNL1       -0.2733
      8 C         138.2309  139.8200  163.1670 C.ar    1  UNL1        0.0829
      9 C         138.2503  139.5906  164.6492 C.ar    1  UNL1        0.0193
     10 C         139.3854  140.1192  165.4751 C.ar    1  UNL1        0.0080
     11 C         139.4049  139.8897  166.9574 C.ar    1  UNL1       -0.0039
     12 C         140.5399  140.4183  167.7833 C.ar    1  UNL1       -0.0203
     13 C         141.6555  141.1764  167.1270 C.ar    1  UNL1        0.0255
     14 C         141.6361  141.4059  165.6448 C.ar    1  UNL1        0.1444
     15 F         142.7517  142.1640  164.9885 F       1  UNL1       -0.2040
     16 C         140.5010  140.8773  164.8188 C.ar    1  UNL1        0.0839
     17 C         140.4815  141.1068  163.3367 C.ar    1  UNL1        0.2668
     18 O         141.5972  141.8649  162.6804 O.2     1  UNL1       -0.2665
     19 C         140.5594  140.1889  169.2656 C.3     1  UNL1        0.0224
     20 C         139.8706  140.2394  170.5971 C.3     1  UNL1        0.0047
     21 C         141.2820  139.7409  170.5013 C.3     1  UNL1        0.0047
     22 N         144.5514  139.1264  156.1403 N.pl3   1  UNL1       -0.3273
     23 C         143.1385  138.7578  156.4839 C.ar    1  UNL1        0.2174
     24 N         142.5318  137.5067  155.9213 N.ar    1  UNL1       -0.1810
     25 C         141.1189  137.1382  156.2649 C.ar    1  UNL1        0.2244
     26 N         140.3128  138.0208  157.1711 N.ar    1  UNL1       -0.1943
     27 C         140.9196  139.2719  157.7338 C.ar    1  UNL1        0.1678
     28 N         142.3324  139.6404  157.3902 N.ar    1  UNL1       -0.1948
     29 H         145.0804  138.5471  155.5455 H       1  UNL1        0.1452
     30 H         144.9496  139.9475  156.5096 H       1  UNL1        0.1452
     31 N         140.5121  135.8871  155.7023 N.pl3   1  UNL1       -0.2800
     32 H         139.5335  135.7986  155.6423 H       1  UNL1        0.1552
     33 C         141.3965  134.7709  155.2310 C.ar    1  UNL1        0.0906
     34 C         141.4736  134.2383  153.8309 C.ar    1  UNL1        0.1363
     35 N         142.4837  133.1296  153.8117 N.ar    1  UNL1       -0.1664
     36 N         143.0309  132.9770  155.2001 N.ar    1  UNL1       -0.2500
     37 C         142.3589  133.9914  156.0772 C.ar    1  UNL1        0.1112
     38 C         144.0680  131.9843  155.6349 C.3     1  UNL1        0.1054
     39 C         145.1825  131.5902  156.5581 C.3     1  UNL1        0.0263
     40 C         144.7495  130.6590  155.4647 C.3     1  UNL1        0.0263
     41 C         140.9586  138.8130  160.6982 C.3     1  UNL1        0.1651
     42 O         140.2872  137.6399  161.3489 O.3     1  UNL1       -0.3772
     43 H         139.8286  137.9341  162.1514 H       1  UNL1        0.2109
@<TRIPOS>BOND
     1    22    23    1
     2    23    24   ar
     3    24    25   ar
     4    25    31    1
     5    31    33    1
     6    33    34   ar
     7    34    35   ar
     8    35    36   ar
     9    36    38    1
    10    38    39    1
    11    39    40    1
    12    36    37   ar
    13    25    26   ar
    14    26    27   ar
    15    27     1    1
    16     1     2   ar
    17     2     3   ar
    18     3     4   ar
    19     4     5   ar
    20     5     7    1
    21     7     8   ar
    22     8     9   ar
    23     9    10   ar
    24    10    11   ar
    25    11    12   ar
    26    12    19    1
    27    19    20    1
    28    20    21    1
    29    12    13   ar
    30    13    14   ar
    31    14    15    1
    32    14    16   ar
    33    16    17   ar
    34    17    18    2
    35     5     6   ar
    36     6    41    1
    37    41    42    1
    38    27    28   ar
    39    28    23   ar
    40    37    33   ar
    41     6     1   ar
    42    40    38    1
    43    17     7   ar
    44    16    10   ar
    45    21    19    1
    46    22    29    1
    47    22    30    1
    48    31    32    1
    49    42    43    1
