@<TRIPOS>MOLECULE
*****
 30 35 0 0 0
SMALL
GASTEIGER

@<TRIPOS>ATOM
      1 N         138.6764  145.2848  165.7585 N.pl3   1  UNL1       -0.3133
      2 C         138.4341  144.0814  164.8965 C.2     1  UNL1        0.2770
      3 N         139.0004  142.7101  165.1174 N.2     1  UNL1       -0.2202
      4 C         138.4992  141.8192  164.0197 C.3     1  UNL1        0.1580
      5 C         137.6231  142.6400  163.1203 C.3     1  UNL1        0.2351
      6 O         137.5828  144.0381  163.6622 O.2     1  UNL1       -0.4478
      7 C         139.3959  141.1288  165.0043 C.ar    1  UNL1        0.0357
      8 C         139.9736  141.8944  166.1576 C.ar    1  UNL1        0.0007
      9 C         140.8703  141.2041  167.1421 C.ar    1  UNL1        0.0015
     10 C         141.1892  139.7480  166.9734 C.ar    1  UNL1        0.0031
     11 C         140.6114  138.9825  165.8201 C.ar    1  UNL1        0.0366
     12 C         139.7148  139.6729  164.8355 C.ar    1  UNL1        0.1360
     13 O         139.1370  138.9073  163.6822 O.3     1  UNL1       -0.4826
     14 C         138.2404  139.5977  162.6977 C.3     1  UNL1        0.1395
     15 C         138.3281  138.1801  162.2152 C.3     1  UNL1        0.0404
     16 C         137.4233  138.5150  161.0666 C.3     1  UNL1        0.0072
     17 C         137.3356  139.9326  161.5491 C.3     1  UNL1        0.0404
     18 C         137.9215  141.0536  162.8664 C.3     1  UNL1        0.1141
     19 C         138.1716  140.8610  163.1411 C.3     1  UNL1        0.1501
     20 O         137.9087  141.0635  162.8524 O.3     1  UNL1       -0.3532
     21 C         138.1716  140.8610  163.1411 C.3     1  UNL1        0.1501
     22 H         139.2539  145.2133  166.5526 H       1  UNL1        0.1466
     23 H         138.2579  146.1462  165.5301 H       1  UNL1        0.1466
     24 C         141.4480  141.9696  168.2954 C.ar    1  UNL1        0.0214
     25 C         140.5688  142.8653  169.1168 C.ar    1  UNL1        0.0990
     26 N         141.1465  143.6309  170.2701 N.ar    1  UNL1       -0.2400
     27 C         142.6035  143.5008  170.6020 C.ar    1  UNL1        0.1284
     28 C         143.4828  142.6051  169.7806 C.ar    1  UNL1        0.1592
     29 F         144.9398  142.4750  170.1126 F       1  UNL1       -0.2025
     30 C         142.9051  141.8395  168.6273 C.ar    1  UNL1        0.0328
@<TRIPOS>BOND
     1     1     2    1
     2     2     3    2
     3     3     4    1
     4     4     5    1
     5     5     6    1
     6     4     7    1
     7     7     8   ar
     8     8     9   ar
     9     9    24    1
    10    24    25   ar
    11    25    26   ar
    12    26    27   ar
    13    27    28   ar
    14    28    29    1
    15    28    30   ar
    16     9    10   ar
    17    10    11   ar
    18    11    12   ar
    19    12    13    1
    20    13    14    1
    21    14    15    1
    22    15    16    1
    23    16    17    1
    24    14    18    1
    25    18    19    1
    26    19    20    1
    27    20    21    1
    28     6     2    1
    29    12     7   ar
    30    17    14    1
    31    21    18    1
    32    18     4    1
    33    30    24   ar
    34     1    22    1
    35     1    23    1
@<TRIPOS>MOLECULE
*****
 30 35 0 0 0
SMALL
GASTEIGER

@<TRIPOS>ATOM
      1 N         137.7197  138.3246  166.5807 N.pl3   1  UNL1       -0.3133
      2 C         138.7780  138.2477  165.5206 C.2     1  UNL1        0.2770
      3 N         140.0415  139.0551  165.4757 N.2     1  UNL1       -0.2202
      4 C         140.8030  138.6563  164.2466 C.3     1  UNL1        0.1580
      5 C         140.0103  137.6024  163.5317 C.3     1  UNL1        0.2351
      6 O         138.7588  137.3499  164.3191 O.2     1  UNL1       -0.4478
      7 C         141.4808  139.7124  165.0683 C.ar    1  UNL1        0.0357
      8 C         140.8364  140.2113  166.3276 C.ar    1  UNL1        0.0007
      9 C         141.5141  141.2674  167.1493 C.ar    1  UNL1        0.0015
     10 C         142.8363  141.8246  166.7118 C.ar    1  UNL1        0.0031
     11 C         143.4807  141.3257  165.4525 C.ar    1  UNL1        0.0366
     12 C         142.8029  140.2696  164.6307 C.ar    1  UNL1        0.1360
     13 O         143.4473  139.7706  163.3714 O.3     1  UNL1       -0.4826
     14 C         142.7696  138.7145  162.5497 C.3     1  UNL1        0.1395
     15 C         144.0417  139.0204  161.8161 C.3     1  UNL1        0.0404
     16 C         143.6809  138.0089  160.7687 C.3     1  UNL1        0.0072
     17 C         142.4088  137.7031  161.5024 C.3     1  UNL1        0.0404
     18 C         141.4475  138.1573  162.9873 C.3     1  UNL1        0.1141
     19 C         141.6365  138.4520  163.2165 C.3     1  UNL1        0.1501
     20 O         141.4378  138.1423  162.9755 O.3     1  UNL1       -0.3532
     21 C         141.6365  138.4520  163.2165 C.3     1  UNL1        0.1501
     22 H         137.8230  138.9489  167.3350 H       1  UNL1        0.1466
     23 H         136.9218  137.7508  166.5224 H       1  UNL1        0.1466
     24 C         140.8697  141.7663  168.4086 C.ar    1  UNL1        0.0214
     25 C         140.2146  140.7994  169.3498 C.ar    1  UNL1        0.0990
     26 N         139.5701  141.2984  170.6091 N.ar    1  UNL1       -0.2400
     27 C         139.5809  142.7642  170.9272 C.ar    1  UNL1        0.1284
     28 C         140.2360  143.7312  169.9860 C.ar    1  UNL1        0.1592
     29 F         140.2467  145.1970  170.3041 F       1  UNL1       -0.2025
     30 C         140.8804  143.2322  168.7267 C.ar    1  UNL1        0.0328
@<TRIPOS>BOND
     1     1     2    1
     2     2     3    2
     3     3     4    1
     4     4     5    1
     5     5     6    1
     6     4     7    1
     7     7     8   ar
     8     8     9   ar
     9     9    24    1
    10    24    25   ar
    11    25    26   ar
    12    26    27   ar
    13    27    28   ar
    14    28    29    1
    15    28    30   ar
    16     9    10   ar
    17    10    11   ar
    18    11    12   ar
    19    12    13    1
    20    13    14    1
    21    14    15    1
    22    15    16    1
    23    16    17    1
    24    14    18    1
    25    18    19    1
    26    19    20    1
    27    20    21    1
    28     6     2    1
    29    12     7   ar
    30    17    14    1
    31    21    18    1
    32    18     4    1
    33    30    24   ar
    34     1    22    1
    35     1    23    1
@<TRIPOS>MOLECULE
*****
 30 35 0 0 0
SMALL
GASTEIGER

@<TRIPOS>ATOM
      1 N         143.6344  142.8925  165.5566 N.pl3   1  UNL1       -0.3133
      2 C         142.8905  142.0598  164.5550 C.2     1  UNL1        0.2770
      3 N         141.6829  141.2147  164.8340 N.2     1  UNL1       -0.2202
      4 C         141.2697  140.5586  163.5501 C.3     1  UNL1        0.1580
      5 C         142.2218  140.9983  162.4775 C.3     1  UNL1        0.2351
      6 O         143.2235  141.9261  163.0986 O.2     1  UNL1       -0.4478
      7 C         140.4006  140.2085  164.7214 C.ar    1  UNL1        0.0357
      8 C         140.6930  140.7904  166.0727 C.ar    1  UNL1        0.0007
      9 C         139.8239  140.4403  167.2440 C.ar    1  UNL1        0.0015
     10 C         138.6624  139.5082  167.0641 C.ar    1  UNL1        0.0031
     11 C         138.3701  138.9263  165.7129 C.ar    1  UNL1        0.0366
     12 C         139.2392  139.2765  164.5415 C.ar    1  UNL1        0.1360
     13 O         138.9469  138.6945  163.1902 O.3     1  UNL1       -0.4826
     14 C         139.8159  139.0447  162.0189 C.3     1  UNL1        0.1395
     15 C         138.7802  138.1097  161.4681 C.3     1  UNL1        0.0404
     16 C         139.4025  138.2217  160.1078 C.3     1  UNL1        0.0072
     17 C         140.4382  139.1567  160.6586 C.3     1  UNL1        0.0404
     18 C         140.9773  139.9767  162.1988 C.3     1  UNL1        0.1141
     19 C         140.7349  139.8790  162.5255 C.3     1  UNL1        0.1501
     20 O         140.9897  139.9817  162.1821 O.3     1  UNL1       -0.3532
     21 C         140.7349  139.8790  162.5255 C.3     1  UNL1        0.1501
     22 H         143.3373  142.9159  166.4950 H       1  UNL1        0.1466
     23 H         144.4196  143.4157  165.2757 H       1  UNL1        0.1466
     24 C         140.1162  141.0222  168.5953 C.ar    1  UNL1        0.0214
     25 C         140.0854  140.1456  169.8120 C.ar    1  UNL1        0.0990
     26 N         140.3777  140.7275  171.1633 N.ar    1  UNL1       -0.2400
     27 C         140.7009  142.1860  171.2978 C.ar    1  UNL1        0.1284
     28 C         140.7318  143.0627  170.0810 C.ar    1  UNL1        0.1592
     29 F         141.0550  144.5213  170.2155 F       1  UNL1       -0.2025
     30 C         140.4395  142.4808  168.7298 C.ar    1  UNL1        0.0328
@<TRIPOS>BOND
     1     1     2    1
     2     2     3    2
     3     3     4    1
     4     4     5    1
     5     5     6    1
     6     4     7    1
     7     7     8   ar
     8     8     9   ar
     9     9    24    1
    10    24    25   ar
    11    25    26   ar
    12    26    27   ar
    13    27    28   ar
    14    28    29    1
    15    28    30   ar
    16     9    10   ar
    17    10    11   ar
    18    11    12   ar
    19    12    13    1
    20    13    14    1
    21    14    15    1
    22    15    16    1
    23    16    17    1
    24    14    18    1
    25    18    19    1
    26    19    20    1
    27    20    21    1
    28     6     2    1
    29    12     7   ar
    30    17    14    1
    31    21    18    1
    32    18     4    1
    33    30    24   ar
    34     1    22    1
    35     1    23    1
@<TRIPOS>MOLECULE
*****
 30 35 0 0 0
SMALL
GASTEIGER

@<TRIPOS>ATOM
      1 N         143.9624  140.4165  161.9991 N.pl3   1  UNL1       -0.3133
      2 C         143.6776  140.1330  163.4443 C.2     1  UNL1        0.2770
      3 N         142.7320  140.8972  164.3230 N.2     1  UNL1       -0.2202
      4 C         142.7584  140.2722  165.6862 C.3     1  UNL1        0.1580
      5 C         143.7203  139.1217  165.6501 C.3     1  UNL1        0.2351
      6 O         144.2884  139.0358  164.2645 O.2     1  UNL1       -0.4478
      7 C         141.8315  141.4459  165.5710 C.ar    1  UNL1        0.0357
      8 C         141.7005  142.1727  164.2655 C.ar    1  UNL1        0.0007
      9 C         140.7736  143.3464  164.1503 C.ar    1  UNL1        0.0015
     10 C         139.9778  143.7934  165.3407 C.ar    1  UNL1        0.0031
     11 C         140.1089  143.0665  166.6463 C.ar    1  UNL1        0.0366
     12 C         141.0358  141.8927  166.7614 C.ar    1  UNL1        0.1360
     13 O         141.1669  141.1659  168.0670 O.3     1  UNL1       -0.4826
     14 C         142.0937  139.9922  168.1822 C.3     1  UNL1        0.1395
     15 C         141.4831  140.1399  169.5444 C.3     1  UNL1        0.0404
     16 C         142.2791  138.9642  170.0286 C.3     1  UNL1        0.0072
     17 C         142.8897  138.8166  168.6664 C.3     1  UNL1        0.0404
     18 C         142.8895  139.5453  166.9918 C.3     1  UNL1        0.1141
     19 C         142.6309  139.8728  166.9597 C.3     1  UNL1        0.1501
     20 O         142.9027  139.5286  166.9935 O.3     1  UNL1       -0.3532
     21 C         142.6309  139.8728  166.9597 C.3     1  UNL1        0.1501
     22 H         143.5091  141.1634  161.5454 H       1  UNL1        0.1466
     23 H         144.6026  139.8556  161.5044 H       1  UNL1        0.1466
     24 C         140.6425  144.0733  162.8447 C.ar    1  UNL1        0.0214
     25 C         139.6146  145.1544  162.6881 C.ar    1  UNL1        0.0990
     26 N         139.4835  145.8812  161.3825 N.ar    1  UNL1       -0.2400
     27 C         140.3804  145.5270  160.2336 C.ar    1  UNL1        0.1284
     28 C         141.4083  144.4458  160.3901 C.ar    1  UNL1        0.1592
     29 F         142.3052  144.0915  159.2412 F       1  UNL1       -0.2025
     30 C         141.5394  143.7190  161.6957 C.ar    1  UNL1        0.0328
@<TRIPOS>BOND
     1     1     2    1
     2     2     3    2
     3     3     4    1
     4     4     5    1
     5     5     6    1
     6     4     7    1
     7     7     8   ar
     8     8     9   ar
     9     9    24    1
    10    24    25   ar
    11    25    26   ar
    12    26    27   ar
    13    27    28   ar
    14    28    29    1
    15    28    30   ar
    16     9    10   ar
    17    10    11   ar
    18    11    12   ar
    19    12    13    1
    20    13    14    1
    21    14    15    1
    22    15    16    1
    23    16    17    1
    24    14    18    1
    25    18    19    1
    26    19    20    1
    27    20    21    1
    28     6     2    1
    29    12     7   ar
    30    17    14    1
    31    21    18    1
    32    18     4    1
    33    30    24   ar
    34     1    22    1
    35     1    23    1
@<TRIPOS>MOLECULE
*****
 30 35 0 0 0
SMALL
GASTEIGER

@<TRIPOS>ATOM
      1 N         142.8185  142.6680  163.3117 N.pl3   1  UNL1       -0.3133
      2 C         142.7041  142.3679  164.7769 C.2     1  UNL1        0.2770
      3 N         141.6257  141.5538  165.4285 N.2     1  UNL1       -0.2202
      4 C         141.9030  141.5119  166.9020 C.3     1  UNL1        0.1580
      5 C         143.1527  142.3002  167.1611 C.3     1  UNL1        0.2351
      6 O         143.6477  142.8292  165.8477 O.2     1  UNL1       -0.4478
      7 C         140.6722  140.7594  166.4912 C.ar    1  UNL1        0.0357
      8 C         140.2685  140.7129  165.0473 C.ar    1  UNL1        0.0007
      9 C         139.0378  139.9604  164.6364 C.ar    1  UNL1        0.0015
     10 C         138.2106  139.2543  165.6695 C.ar    1  UNL1        0.0031
     11 C         138.6143  139.3007  167.1135 C.ar    1  UNL1        0.0366
     12 C         139.8451  140.0533  167.5243 C.ar    1  UNL1        0.1360
     13 O         140.2488  140.0997  168.9682 O.3     1  UNL1       -0.4826
     14 C         141.4796  140.8523  169.3790 C.3     1  UNL1        0.1395
     15 C         140.9248  140.2896  170.6541 C.3     1  UNL1        0.0404
     16 C         142.0505  140.9180  171.4211 C.3     1  UNL1        0.0072
     17 C         142.6052  141.4806  170.1460 C.3     1  UNL1        0.0404
     18 C         142.3067  141.5584  168.3459 C.3     1  UNL1        0.1141
     19 C         141.9633  141.3484  168.2314 C.3     1  UNL1        0.1501
     20 O         142.3242  141.5691  168.3518 O.3     1  UNL1       -0.3532
     21 C         141.9633  141.3484  168.2314 C.3     1  UNL1        0.1501
     22 H         142.1458  142.3185  162.6836 H       1  UNL1        0.1466
     23 H         143.5664  143.2146  162.9781 H       1  UNL1        0.1466
     24 C         138.6341  139.9140  163.1925 C.ar    1  UNL1        0.0214
     25 C         137.6627  140.9213  162.6526 C.ar    1  UNL1        0.0990
     26 N         137.2590  140.8749  161.2087 N.ar    1  UNL1       -0.2400
     27 C         137.8267  139.8211  160.3047 C.ar    1  UNL1        0.1284
     28 C         138.7982  138.8137  160.8446 C.ar    1  UNL1        0.1592
     29 F         139.3659  137.7599  159.9407 F       1  UNL1       -0.2025
     30 C         139.2019  138.8601  162.2886 C.ar    1  UNL1        0.0328
@<TRIPOS>BOND
     1     1     2    1
     2     2     3    2
     3     3     4    1
     4     4     5    1
     5     5     6    1
     6     4     7    1
     7     7     8   ar
     8     8     9   ar
     9     9    24    1
    10    24    25   ar
    11    25    26   ar
    12    26    27   ar
    13    27    28   ar
    14    28    29    1
    15    28    30   ar
    16     9    10   ar
    17    10    11   ar
    18    11    12   ar
    19    12    13    1
    20    13    14    1
    21    14    15    1
    22    15    16    1
    23    16    17    1
    24    14    18    1
    25    18    19    1
    26    19    20    1
    27    20    21    1
    28     6     2    1
    29    12     7   ar
    30    17    14    1
    31    21    18    1
    32    18     4    1
    33    30    24   ar
    34     1    22    1
    35     1    23    1
@<TRIPOS>MOLECULE
*****
 30 35 0 0 0
SMALL
GASTEIGER

@<TRIPOS>ATOM
      1 N         145.1651  139.6855  164.1153 N.pl3   1  UNL1       -0.3133
      2 C         144.4049  140.7090  163.3251 C.2     1  UNL1        0.2770
      3 N         143.2281  141.5024  163.8110 N.2     1  UNL1       -0.2202
      4 C         142.7839  142.4026  162.6965 C.3     1  UNL1        0.1580
      5 C         143.6862  142.1656  161.5217 C.3     1  UNL1        0.2351
      6 O         144.6879  141.1190  161.9103 O.2     1  UNL1       -0.4478
      7 C         141.9662  142.5312  163.9474 C.ar    1  UNL1        0.0357
      8 C         142.2937  141.6925  165.1471 C.ar    1  UNL1        0.0007
      9 C         141.4760  141.8211  166.3980 C.ar    1  UNL1        0.0015
     10 C         140.3307  142.7884  166.4492 C.ar    1  UNL1        0.0031
     11 C         140.0031  143.6271  165.2494 C.ar    1  UNL1        0.0366
     12 C         140.8209  143.4985  163.9985 C.ar    1  UNL1        0.1360
     13 O         140.4934  144.3372  162.7988 O.3     1  UNL1       -0.4826
     14 C         141.3111  144.2085  161.5479 C.3     1  UNL1        0.1395
     15 C         140.2781  145.2490  161.2311 C.3     1  UNL1        0.0404
     16 C         140.8479  145.3947  159.8512 C.3     1  UNL1        0.0072
     17 C         141.8810  144.3542  160.1680 C.3     1  UNL1        0.0404
     18 C         142.4564  143.2412  161.4968 C.3     1  UNL1        0.1141
     19 C         142.2283  143.2771  161.8457 C.3     1  UNL1        0.1501
     20 O         142.4680  143.2394  161.4789 O.3     1  UNL1       -0.3532
     21 C         142.2283  143.2771  161.8457 C.3     1  UNL1        0.1501
     22 H         144.9018  139.4843  165.0424 H       1  UNL1        0.1466
     23 H         145.9273  139.2150  163.7069 H       1  UNL1        0.1466
     24 C         141.8035  140.9824  167.5977 C.ar    1  UNL1        0.0214
     25 C         142.6980  139.7867  167.4554 C.ar    1  UNL1        0.0990
     26 N         143.0255  138.9481  168.6551 N.ar    1  UNL1       -0.2400
     27 C         142.4586  139.3050  169.9971 C.ar    1  UNL1        0.1284
     28 C         141.5641  140.5008  170.1395 C.ar    1  UNL1        0.1592
     29 F         140.9972  140.8578  171.4815 F       1  UNL1       -0.2025
     30 C         141.2366  141.3395  168.9398 C.ar    1  UNL1        0.0328
@<TRIPOS>BOND
     1     1     2    1
     2     2     3    2
     3     3     4    1
     4     4     5    1
     5     5     6    1
     6     4     7    1
     7     7     8   ar
     8     8     9   ar
     9     9    24    1
    10    24    25   ar
    11    25    26   ar
    12    26    27   ar
    13    27    28   ar
    14    28    29    1
    15    28    30   ar
    16     9    10   ar
    17    10    11   ar
    18    11    12   ar
    19    12    13    1
    20    13    14    1
    21    14    15    1
    22    15    16    1
    23    16    17    1
    24    14    18    1
    25    18    19    1
    26    19    20    1
    27    20    21    1
    28     6     2    1
    29    12     7   ar
    30    17    14    1
    31    21    18    1
    32    18     4    1
    33    30    24   ar
    34     1    22    1
    35     1    23    1
@<TRIPOS>MOLECULE
*****
 30 35 0 0 0
SMALL
GASTEIGER

@<TRIPOS>ATOM
      1 N         143.4727  138.3733  166.2419 N.pl3   1  UNL1       -0.3133
      2 C         142.6374  138.7419  165.0518 C.2     1  UNL1        0.2770
      3 N         141.7270  139.9296  164.9473 N.2     1  UNL1       -0.2202
      4 C         141.0927  139.9092  163.5883 C.3     1  UNL1        0.1580
      5 C         141.6109  138.7089  162.8528 C.3     1  UNL1        0.2351
      6 O         142.5655  137.9875  163.7574 O.2     1  UNL1       -0.4478
      7 C         140.6647  141.0643  164.4441 C.ar    1  UNL1        0.0357
      8 C         141.2171  141.2158  165.8305 C.ar    1  UNL1        0.0007
      9 C         140.7891  142.3709  166.6863 C.ar    1  UNL1        0.0015
     10 C         139.8086  143.3746  166.1558 C.ar    1  UNL1        0.0031
     11 C         139.2562  143.2232  164.7695 C.ar    1  UNL1        0.0366
     12 C         139.6843  142.0680  163.9136 C.ar    1  UNL1        0.1360
     13 O         139.1319  141.9165  162.5273 O.3     1  UNL1       -0.4826
     14 C         139.5599  140.7614  161.6715 C.3     1  UNL1        0.1395
     15 C         138.5942  141.5356  160.8240 C.3     1  UNL1        0.0404
     16 C         138.7786  140.5471  159.7109 C.3     1  UNL1        0.0072
     17 C         139.7442  139.7729  160.5583 C.3     1  UNL1        0.0404
     18 C         140.5403  139.7577  162.2020 C.3     1  UNL1        0.1141
     19 C         140.4209  140.0800  162.4407 C.3     1  UNL1        0.1501
     20 O         140.5464  139.7413  162.1898 O.3     1  UNL1       -0.3532
     21 C         140.4209  140.0800  162.4407 C.3     1  UNL1        0.1501
     22 H         143.4524  138.9346  167.0505 H       1  UNL1        0.1466
     23 H         144.0414  137.5701  166.2144 H       1  UNL1        0.1466
     24 C         141.3415  142.5224  168.0726 C.ar    1  UNL1        0.0214
     25 C         140.4189  142.8058  169.2208 C.ar    1  UNL1        0.0990
     26 N         140.9713  142.9573  170.6071 N.ar    1  UNL1       -0.2400
     27 C         142.4464  142.8254  170.8453 C.ar    1  UNL1        0.1284
     28 C         143.3691  142.5419  169.6970 C.ar    1  UNL1        0.1592
     29 F         144.8441  142.4100  169.9352 F       1  UNL1       -0.2025
     30 C         142.8167  142.3905  168.3107 C.ar    1  UNL1        0.0328
@<TRIPOS>BOND
     1     1     2    1
     2     2     3    2
     3     3     4    1
     4     4     5    1
     5     5     6    1
     6     4     7    1
     7     7     8   ar
     8     8     9   ar
     9     9    24    1
    10    24    25   ar
    11    25    26   ar
    12    26    27   ar
    13    27    28   ar
    14    28    29    1
    15    28    30   ar
    16     9    10   ar
    17    10    11   ar
    18    11    12   ar
    19    12    13    1
    20    13    14    1
    21    14    15    1
    22    15    16    1
    23    16    17    1
    24    14    18    1
    25    18    19    1
    26    19    20    1
    27    20    21    1
    28     6     2    1
    29    12     7   ar
    30    17    14    1
    31    21    18    1
    32    18     4    1
    33    30    24   ar
    34     1    22    1
    35     1    23    1
@<TRIPOS>MOLECULE
*****
 30 35 0 0 0
SMALL
GASTEIGER

@<TRIPOS>ATOM
      1 N         138.5346  138.1890  165.4312 N.pl3   1  UNL1       -0.3133
      2 C         139.1974  138.2334  164.0863 C.2     1  UNL1        0.2770
      3 N         140.5610  138.7857  163.7932 N.2     1  UNL1       -0.2202
      4 C         140.8194  138.6270  162.3243 C.3     1  UNL1        0.1580
      5 C         139.6156  137.9767  161.7095 C.3     1  UNL1        0.2351
      6 O         138.6132  137.7335  162.7985 O.2     1  UNL1       -0.4478
      7 C         141.9473  139.2691  163.0763 C.ar    1  UNL1        0.0357
      8 C         141.8314  139.4930  164.5549 C.ar    1  UNL1        0.0007
      9 C         142.9592  140.1351  165.3070 C.ar    1  UNL1        0.0015
     10 C         144.2031  140.5533  164.5803 C.ar    1  UNL1        0.0031
     11 C         144.3190  140.3294  163.1017 C.ar    1  UNL1        0.0366
     12 C         143.1911  139.6873  162.3497 C.ar    1  UNL1        0.1360
     13 O         143.3070  139.4634  160.8710 O.3     1  UNL1       -0.4826
     14 C         142.1791  138.8213  160.1190 C.3     1  UNL1        0.1395
     15 C         143.2294  139.0959  159.0837 C.3     1  UNL1        0.0404
     16 C         142.3431  138.5047  158.0278 C.3     1  UNL1        0.0072
     17 C         141.2928  138.2301  159.0630 C.3     1  UNL1        0.0404
     18 C         140.9353  138.4031  160.8456 C.3     1  UNL1        0.1141
     19 C         141.2500  138.5823  161.0554 C.3     1  UNL1        0.1501
     20 O         140.9193  138.3940  160.8349 O.3     1  UNL1       -0.3532
     21 C         141.2500  138.5823  161.0554 C.3     1  UNL1        0.1501
     22 H         139.0013  138.5440  166.2220 H       1  UNL1        0.1466
     23 H         137.6328  137.8048  165.5231 H       1  UNL1        0.1466
     24 C         142.8433  140.3590  166.7856 C.ar    1  UNL1        0.0214
     25 C         142.8460  141.7546  167.3353 C.ar    1  UNL1        0.0990
     26 N         142.7301  141.9785  168.8140 N.ar    1  UNL1       -0.2400
     27 C         142.6115  140.8068  169.7429 C.ar    1  UNL1        0.1284
     28 C         142.6088  139.4111  169.1932 C.ar    1  UNL1        0.1592
     29 F         142.4902  138.2394  170.1222 F       1  UNL1       -0.2025
     30 C         142.7247  139.1872  167.7146 C.ar    1  UNL1        0.0328
@<TRIPOS>BOND
     1     1     2    1
     2     2     3    2
     3     3     4    1
     4     4     5    1
     5     5     6    1
     6     4     7    1
     7     7     8   ar
     8     8     9   ar
     9     9    24    1
    10    24    25   ar
    11    25    26   ar
    12    26    27   ar
    13    27    28   ar
    14    28    29    1
    15    28    30   ar
    16     9    10   ar
    17    10    11   ar
    18    11    12   ar
    19    12    13    1
    20    13    14    1
    21    14    15    1
    22    15    16    1
    23    16    17    1
    24    14    18    1
    25    18    19    1
    26    19    20    1
    27    20    21    1
    28     6     2    1
    29    12     7   ar
    30    17    14    1
    31    21    18    1
    32    18     4    1
    33    30    24   ar
    34     1    22    1
    35     1    23    1
@<TRIPOS>MOLECULE
*****
 30 35 0 0 0
SMALL
GASTEIGER

@<TRIPOS>ATOM
      1 N         139.8154  143.0280  162.8697 N.pl3   1  UNL1       -0.3133
      2 C         140.0285  142.8918  164.3482 C.2     1  UNL1        0.2770
      3 N         140.8237  141.8175  165.0293 N.2     1  UNL1       -0.2202
      4 C         140.7705  142.0678  166.5072 C.3     1  UNL1        0.1580
      5 C         139.9423  143.2968  166.7397 C.3     1  UNL1        0.2351
      6 O         139.4838  143.8060  165.4054 O.2     1  UNL1       -0.4478
      7 C         141.5717  140.8599  166.1214 C.ar    1  UNL1        0.0357
      8 C         141.7139  140.4844  164.6762 C.ar    1  UNL1        0.0007
      9 C         142.5151  139.2765  164.2904 C.ar    1  UNL1        0.0015
     10 C         143.1743  138.4439  165.3499 C.ar    1  UNL1        0.0031
     11 C         143.0321  138.8194  166.7952 C.ar    1  UNL1        0.0366
     12 C         142.2308  140.0274  167.1809 C.ar    1  UNL1        0.1360
     13 O         142.0886  140.4029  168.6262 O.3     1  UNL1       -0.4826
     14 C         141.2874  141.6108  169.0120 C.3     1  UNL1        0.1395
     15 C         141.7831  141.0433  170.3091 C.3     1  UNL1        0.0404
     16 C         141.0863  142.1418  171.0560 C.3     1  UNL1        0.0072
     17 C         140.5906  142.7094  169.7589 C.3     1  UNL1        0.0404
     18 C         140.6283  142.4433  167.9525 C.3     1  UNL1        0.1141
     19 C         140.8518  142.1063  167.8449 C.3     1  UNL1        0.1501
     20 O         140.6169  142.4605  167.9580 O.3     1  UNL1       -0.3532
     21 C         140.8518  142.1063  167.8449 C.3     1  UNL1        0.1501
     22 H         140.2162  142.3741  162.2524 H       1  UNL1        0.1466
     23 H         139.2748  143.7712  162.5167 H       1  UNL1        0.1466
     24 C         142.6573  138.9010  162.8451 C.ar    1  UNL1        0.0214
     25 C         144.0190  138.6661  162.2617 C.ar    1  UNL1        0.0990
     26 N         144.1612  138.2906  160.8164 N.ar    1  UNL1       -0.2400
     27 C         142.9416  138.1500  159.9546 C.ar    1  UNL1        0.1284
     28 C         141.5798  138.3849  160.5380 C.ar    1  UNL1        0.1592
     29 F         140.3602  138.2443  159.6762 F       1  UNL1       -0.2025
     30 C         141.4376  138.7604  161.9833 C.ar    1  UNL1        0.0328
@<TRIPOS>BOND
     1     1     2    1
     2     2     3    2
     3     3     4    1
     4     4     5    1
     5     5     6    1
     6     4     7    1
     7     7     8   ar
     8     8     9   ar
     9     9    24    1
    10    24    25   ar
    11    25    26   ar
    12    26    27   ar
    13    27    28   ar
    14    28    29    1
    15    28    30   ar
    16     9    10   ar
    17    10    11   ar
    18    11    12   ar
    19    12    13    1
    20    13    14    1
    21    14    15    1
    22    15    16    1
    23    16    17    1
    24    14    18    1
    25    18    19    1
    26    19    20    1
    27    20    21    1
    28     6     2    1
    29    12     7   ar
    30    17    14    1
    31    21    18    1
    32    18     4    1
    33    30    24   ar
    34     1    22    1
    35     1    23    1
