@<TRIPOS>MOLECULE
*****
 24 27 0 0 0
SMALL
GASTEIGER

@<TRIPOS>ATOM
      1 C         142.4288  142.6354  170.0556 C.ar    1  UNL1        0.1418
      2 C         141.5902  142.1722  171.2098 C.ar    1  UNL1        0.0372
      3 C         140.4131  141.2742  170.9688 C.ar    1  UNL1        0.0095
      4 C         140.0746  140.8394  169.5737 C.ar    1  UNL1        0.0768
      5 C         138.8975  139.9414  169.3328 C.ar    1  UNL1        0.2350
      6 O         138.0589  139.4782  170.4870 O.2     1  UNL1       -0.2831
      7 C         138.5590  139.5066  167.9377 C.ar    1  UNL1        0.2081
      8 O         137.3819  138.6086  167.6968 O.3     1  UNL1       -0.5007
      9 C         139.3976  139.9699  166.7835 C.ar    1  UNL1        0.1819
     10 O         140.5747  140.8678  167.0244 O.2     1  UNL1       -0.4501
     11 C         140.9132  141.3026  168.4196 C.ar    1  UNL1        0.1516
     12 C         142.0903  142.2006  168.6605 C.ar    1  UNL1        0.0744
     13 H         136.8580  138.3193  168.4178 H       1  UNL1        0.2924
     14 C         139.0591  139.5351  165.3884 C.ar    1  UNL1        0.0409
     15 C         139.3933  138.1452  164.9340 C.ar    1  UNL1        0.0065
     16 C         139.0547  137.7104  163.5389 C.ar    1  UNL1        0.0403
     17 C         138.3820  138.6656  162.5981 C.ar    1  UNL1        0.1764
     18 C         138.0478  140.0555  163.0524 C.ar    1  UNL1        0.1765
     19 C         138.3863  140.4903  164.4475 C.ar    1  UNL1        0.0433
     20 O         137.3892  140.7707  161.9102 O.3     1  UNL1       -0.4346
     21 C         137.3164  139.8229  160.7499 C.3     1  UNL1        0.4294
     22 O         137.9300  138.5218  161.1751 O.3     1  UNL1       -0.4346
     23 C         144.9989  142.9847  170.2052 C.3     1  UNL1        0.2525
     24 O         143.6059  143.5334  170.2965 O.3     1  UNL1       -0.4713
@<TRIPOS>BOND
     1    23    24    1
     2    24     1    1
     3     1     2   ar
     4     2     3   ar
     5     3     4   ar
     6     4     5   ar
     7     5     6    2
     8     5     7   ar
     9     7     8    1
    10     7     9   ar
    11     9    14    1
    12    14    15   ar
    13    15    16   ar
    14    16    17   ar
    15    17    18   ar
    16    18    19   ar
    17    18    20    1
    18    20    21    1
    19    21    22    1
    20     9    10   ar
    21    10    11   ar
    22    11    12   ar
    23    12     1   ar
    24    11     4   ar
    25    19    14   ar
    26    22    17    1
    27     8    13    1
@<TRIPOS>MOLECULE
*****
 24 27 0 0 0
SMALL
GASTEIGER

@<TRIPOS>ATOM
      1 C         140.3910  142.4695  170.2010 C.ar    1  UNL1        0.1418
      2 C         140.8123  141.4341  171.2012 C.ar    1  UNL1        0.0372
      3 C         141.6320  140.2571  170.7623 C.ar    1  UNL1        0.0095
      4 C         142.0305  140.1155  169.3232 C.ar    1  UNL1        0.0768
      5 C         142.8502  138.9385  168.8843 C.ar    1  UNL1        0.2350
      6 O         143.2715  137.9031  169.8845 O.2     1  UNL1       -0.2831
      7 C         143.2487  138.7968  167.4452 C.ar    1  UNL1        0.2081
      8 O         144.0684  137.6198  167.0062 O.3     1  UNL1       -0.5007
      9 C         142.8274  139.8322  166.4449 C.ar    1  UNL1        0.1819
     10 O         142.0077  141.0093  166.8838 O.2     1  UNL1       -0.4501
     11 C         141.6092  141.1509  168.3230 C.ar    1  UNL1        0.1516
     12 C         140.7895  142.3279  168.7619 C.ar    1  UNL1        0.0744
     13 H         144.3316  136.9730  167.6311 H       1  UNL1        0.2924
     14 C         143.2259  139.6906  165.0057 C.ar    1  UNL1        0.0409
     15 C         144.3640  140.5007  164.4594 C.ar    1  UNL1        0.0065
     16 C         144.7624  140.3590  163.0202 C.ar    1  UNL1        0.0403
     17 C         144.0228  139.4073  162.1274 C.ar    1  UNL1        0.1764
     18 C         142.8847  138.5972  162.6737 C.ar    1  UNL1        0.1765
     19 C         142.4862  138.7388  164.1129 C.ar    1  UNL1        0.0433
     20 O         142.3457  137.7465  161.5621 O.3     1  UNL1       -0.4346
     21 C         143.1506  138.0308  160.3287 C.3     1  UNL1        0.4294
     22 O         144.1871  139.0572  160.6781 O.3     1  UNL1       -0.4346
     23 C         140.0197  145.0387  170.3073 C.3     1  UNL1        0.2525
     24 O         139.5712  143.6465  170.6399 O.3     1  UNL1       -0.4713
@<TRIPOS>BOND
     1    23    24    1
     2    24     1    1
     3     1     2   ar
     4     2     3   ar
     5     3     4   ar
     6     4     5   ar
     7     5     6    2
     8     5     7   ar
     9     7     8    1
    10     7     9   ar
    11     9    14    1
    12    14    15   ar
    13    15    16   ar
    14    16    17   ar
    15    17    18   ar
    16    18    19   ar
    17    18    20    1
    18    20    21    1
    19    21    22    1
    20     9    10   ar
    21    10    11   ar
    22    11    12   ar
    23    12     1   ar
    24    11     4   ar
    25    19    14   ar
    26    22    17    1
    27     8    13    1
@<TRIPOS>MOLECULE
*****
 24 27 0 0 0
SMALL
GASTEIGER

@<TRIPOS>ATOM
      1 C         140.6856  140.7913  169.6065 C.ar    1  UNL1        0.1418
      2 C         142.0155  140.1037  169.6984 C.ar    1  UNL1        0.0372
      3 C         142.6014  139.4391  168.4881 C.ar    1  UNL1        0.0095
      4 C         141.8575  139.4622  167.1858 C.ar    1  UNL1        0.0768
      5 C         142.4434  138.7976  165.9754 C.ar    1  UNL1        0.2350
      6 O         143.7733  138.1100  166.0673 O.2     1  UNL1       -0.2831
      7 C         141.6995  138.8207  164.6731 C.ar    1  UNL1        0.2081
      8 O         142.2854  138.1561  163.4628 O.3     1  UNL1       -0.5007
      9 C         140.3695  139.5083  164.5812 C.ar    1  UNL1        0.1819
     10 O         139.7835  140.1729  165.7916 O.2     1  UNL1       -0.4501
     11 C         140.5276  140.1498  167.0939 C.ar    1  UNL1        0.1516
     12 C         139.9416  140.8144  168.3043 C.ar    1  UNL1        0.0744
     13 H         143.1162  137.7266  163.5202 H       1  UNL1        0.2924
     14 C         139.6255  139.5313  163.2789 C.ar    1  UNL1        0.0409
     15 C         138.5718  138.5012  162.9988 C.ar    1  UNL1        0.0065
     16 C         137.8278  138.5243  161.6964 C.ar    1  UNL1        0.0403
     17 C         138.1376  139.5775  160.6743 C.ar    1  UNL1        0.1764
     18 C         139.1913  140.6076  160.9545 C.ar    1  UNL1        0.1765
     19 C         139.9352  140.5846  162.2567 C.ar    1  UNL1        0.0433
     20 O         139.2784  141.5169  159.7647 O.3     1  UNL1       -0.4346
     21 C         138.2786  141.0488  158.7492 C.3     1  UNL1        0.4294
     22 O         137.5735  139.8501  159.3114 O.3     1  UNL1       -0.4346
     23 C         139.7198  142.9061  170.7663 C.3     1  UNL1        0.2525
     24 O         140.0996  141.4559  170.8169 O.3     1  UNL1       -0.4713
@<TRIPOS>BOND
     1    23    24    1
     2    24     1    1
     3     1     2   ar
     4     2     3   ar
     5     3     4   ar
     6     4     5   ar
     7     5     6    2
     8     5     7   ar
     9     7     8    1
    10     7     9   ar
    11     9    14    1
    12    14    15   ar
    13    15    16   ar
    14    16    17   ar
    15    17    18   ar
    16    18    19   ar
    17    18    20    1
    18    20    21    1
    19    21    22    1
    20     9    10   ar
    21    10    11   ar
    22    11    12   ar
    23    12     1   ar
    24    11     4   ar
    25    19    14   ar
    26    22    17    1
    27     8    13    1
@<TRIPOS>MOLECULE
*****
 24 27 0 0 0
SMALL
GASTEIGER

@<TRIPOS>ATOM
      1 C         140.9725  142.2694  169.7029 C.ar    1  UNL1        0.1418
      2 C         139.8740  141.4348  170.2915 C.ar    1  UNL1        0.0372
      3 C         139.1506  140.4364  169.4372 C.ar    1  UNL1        0.0095
      4 C         139.5259  140.2725  167.9942 C.ar    1  UNL1        0.0768
      5 C         138.8025  139.2740  167.1399 C.ar    1  UNL1        0.2350
      6 O         137.7040  138.4394  167.7286 O.2     1  UNL1       -0.2831
      7 C         139.1778  139.1101  165.6969 C.ar    1  UNL1        0.2081
      8 O         138.4544  138.1117  164.8426 O.3     1  UNL1       -0.5007
      9 C         140.2764  139.9448  165.1081 C.ar    1  UNL1        0.1819
     10 O         140.9997  140.9432  165.9625 O.2     1  UNL1       -0.4501
     11 C         140.6244  141.1071  167.4055 C.ar    1  UNL1        0.1516
     12 C         141.3478  142.1055  168.2599 C.ar    1  UNL1        0.0744
     13 H         137.7682  137.5903  165.2103 H       1  UNL1        0.2924
     14 C         140.6516  139.7809  163.6651 C.ar    1  UNL1        0.0409
     15 C         140.0195  140.6540  162.6220 C.ar    1  UNL1        0.0065
     16 C         140.3948  140.4901  161.1789 C.ar    1  UNL1        0.0403
     17 C         141.4021  139.4531  160.7791 C.ar    1  UNL1        0.1764
     18 C         142.0342  138.5800  161.8222 C.ar    1  UNL1        0.1765
     19 C         141.6590  138.7439  163.2652 C.ar    1  UNL1        0.0433
     20 O         142.9887  137.6508  161.1326 O.3     1  UNL1       -0.4346
     21 C         142.9465  137.9496  159.6633 C.3     1  UNL1        0.4294
     22 O         141.9660  139.0635  159.4448 O.3     1  UNL1       -0.4346
     23 C         143.1896  143.2074  170.6800 C.3     1  UNL1        0.2525
     24 O         141.6959  143.2679  170.5572 O.3     1  UNL1       -0.4713
@<TRIPOS>BOND
     1    23    24    1
     2    24     1    1
     3     1     2   ar
     4     2     3   ar
     5     3     4   ar
     6     4     5   ar
     7     5     6    2
     8     5     7   ar
     9     7     8    1
    10     7     9   ar
    11     9    14    1
    12    14    15   ar
    13    15    16   ar
    14    16    17   ar
    15    17    18   ar
    16    18    19   ar
    17    18    20    1
    18    20    21    1
    19    21    22    1
    20     9    10   ar
    21    10    11   ar
    22    11    12   ar
    23    12     1   ar
    24    11     4   ar
    25    19    14   ar
    26    22    17    1
    27     8    13    1
@<TRIPOS>MOLECULE
*****
 24 27 0 0 0
SMALL
GASTEIGER

@<TRIPOS>ATOM
      1 C         140.1613  141.6387  169.2699 C.ar    1  UNL1        0.1418
      2 C         139.3987  140.3546  169.1309 C.ar    1  UNL1        0.0372
      3 C         139.1008  139.8029  167.7683 C.ar    1  UNL1        0.0095
      4 C         139.5655  140.5353  166.5445 C.ar    1  UNL1        0.0768
      5 C         139.2676  139.9835  165.1819 C.ar    1  UNL1        0.2350
      6 O         138.5050  138.6994  165.0430 O.2     1  UNL1       -0.2831
      7 C         139.7324  140.7159  163.9582 C.ar    1  UNL1        0.2081
      8 O         139.4345  140.1641  162.5955 O.3     1  UNL1       -0.5007
      9 C         140.4950  142.0001  164.0970 C.ar    1  UNL1        0.1819
     10 O         140.7929  142.5519  165.4597 O.2     1  UNL1       -0.4501
     11 C         140.3282  141.8194  166.6835 C.ar    1  UNL1        0.1516
     12 C         140.6261  142.3711  168.0461 C.ar    1  UNL1        0.0744
     13 H         138.9581  139.3620  162.5087 H       1  UNL1        0.2924
     14 C         140.9597  142.7325  162.8733 C.ar    1  UNL1        0.0409
     15 C         142.3917  142.6327  162.4380 C.ar    1  UNL1        0.0065
     16 C         142.8564  143.3651  161.2142 C.ar    1  UNL1        0.0403
     17 C         141.8892  144.1973  160.4257 C.ar    1  UNL1        0.1764
     18 C         140.4572  144.2972  160.8610 C.ar    1  UNL1        0.1765
     19 C         139.9924  143.5648  162.0847 C.ar    1  UNL1        0.0433
     20 O         139.7387  145.1871  159.8905 O.3     1  UNL1       -0.4346
     21 C         140.7266  145.6374  158.8555 C.3     1  UNL1        0.4294
     22 O         142.0557  145.0256  159.1863 O.3     1  UNL1       -0.4346
     23 C         141.7797  141.9059  171.2847 C.3     1  UNL1        0.2525
     24 O         140.4592  142.1905  170.6325 O.3     1  UNL1       -0.4713
@<TRIPOS>BOND
     1    23    24    1
     2    24     1    1
     3     1     2   ar
     4     2     3   ar
     5     3     4   ar
     6     4     5   ar
     7     5     6    2
     8     5     7   ar
     9     7     8    1
    10     7     9   ar
    11     9    14    1
    12    14    15   ar
    13    15    16   ar
    14    16    17   ar
    15    17    18   ar
    16    18    19   ar
    17    18    20    1
    18    20    21    1
    19    21    22    1
    20     9    10   ar
    21    10    11   ar
    22    11    12   ar
    23    12     1   ar
    24    11     4   ar
    25    19    14   ar
    26    22    17    1
    27     8    13    1
@<TRIPOS>MOLECULE
*****
 24 27 0 0 0
SMALL
GASTEIGER

@<TRIPOS>ATOM
      1 C         139.3243  143.0628  160.2094 C.ar    1  UNL1        0.1418
      2 C         138.5530  141.9458  159.5711 C.ar    1  UNL1        0.0372
      3 C         138.2998  140.6784  160.3325 C.ar    1  UNL1        0.0095
      4 C         138.8177  140.5281  161.7321 C.ar    1  UNL1        0.0768
      5 C         138.5645  139.2607  162.4935 C.ar    1  UNL1        0.2350
      6 O         137.7932  138.1437  161.8552 O.2     1  UNL1       -0.2831
      7 C         139.0824  139.1103  163.8931 C.ar    1  UNL1        0.2081
      8 O         138.8291  137.8430  164.6545 O.3     1  UNL1       -0.5007
      9 C         139.8537  140.2274  164.5315 C.ar    1  UNL1        0.1819
     10 O         140.1069  141.4947  163.7702 O.2     1  UNL1       -0.4501
     11 C         139.5889  141.6451  162.3704 C.ar    1  UNL1        0.1516
     12 C         139.8422  142.9124  161.6091 C.ar    1  UNL1        0.0744
     13 H         138.3474  137.1452  164.2557 H       1  UNL1        0.2924
     14 C         140.3716  140.0770  165.9311 C.ar    1  UNL1        0.0409
     15 C         141.8182  139.7566  166.1652 C.ar    1  UNL1        0.0065
     16 C         142.3361  139.6062  167.5649 C.ar    1  UNL1        0.0403
     17 C         141.4075  139.7763  168.7305 C.ar    1  UNL1        0.1764
     18 C         139.9609  140.0967  168.4965 C.ar    1  UNL1        0.1765
     19 C         139.4430  140.2471  167.0969 C.ar    1  UNL1        0.0433
     20 O         139.2885  140.2065  169.8328 O.3     1  UNL1       -0.4346
     21 C         140.3194  139.9540  170.8927 C.3     1  UNL1        0.4294
     22 O         141.6290  139.6881  170.2115 O.3     1  UNL1       -0.4346
     23 C         140.3386  145.4517  160.0906 C.3     1  UNL1        0.2525
     24 O         139.5775  144.3302  159.4481 O.3     1  UNL1       -0.4713
@<TRIPOS>BOND
     1    23    24    1
     2    24     1    1
     3     1     2   ar
     4     2     3   ar
     5     3     4   ar
     6     4     5   ar
     7     5     6    2
     8     5     7   ar
     9     7     8    1
    10     7     9   ar
    11     9    14    1
    12    14    15   ar
    13    15    16   ar
    14    16    17   ar
    15    17    18   ar
    16    18    19   ar
    17    18    20    1
    18    20    21    1
    19    21    22    1
    20     9    10   ar
    21    10    11   ar
    22    11    12   ar
    23    12     1   ar
    24    11     4   ar
    25    19    14   ar
    26    22    17    1
    27     8    13    1
@<TRIPOS>MOLECULE
*****
 24 27 0 0 0
SMALL
GASTEIGER

@<TRIPOS>ATOM
      1 C         141.2090  141.2341  169.5587 C.ar    1  UNL1        0.1418
      2 C         139.8038  140.7308  169.7069 C.ar    1  UNL1        0.0372
      3 C         139.1174  140.0706  168.5481 C.ar    1  UNL1        0.0095
      4 C         139.8363  139.9136  167.2410 C.ar    1  UNL1        0.0768
      5 C         139.1499  139.2534  166.0821 C.ar    1  UNL1        0.2350
      6 O         137.7447  138.7502  166.2303 O.2     1  UNL1       -0.2831
      7 C         139.8687  139.0964  164.7750 C.ar    1  UNL1        0.2081
      8 O         139.1824  138.4362  163.6161 O.3     1  UNL1       -0.5007
      9 C         141.2741  139.5996  164.6267 C.ar    1  UNL1        0.1819
     10 O         141.9604  140.2598  165.7856 O.2     1  UNL1       -0.4501
     11 C         141.2415  140.4168  167.0927 C.ar    1  UNL1        0.1516
     12 C         141.9279  141.0771  168.2516 C.ar    1  UNL1        0.0744
     13 H         138.3045  138.1218  163.7087 H       1  UNL1        0.2924
     14 C         141.9929  139.4426  163.3196 C.ar    1  UNL1        0.0409
     15 C         142.7559  138.1842  163.0297 C.ar    1  UNL1        0.0065
     16 C         143.4748  138.0272  161.7226 C.ar    1  UNL1        0.0403
     17 C         143.4306  139.1287  160.7053 C.ar    1  UNL1        0.1764
     18 C         142.6676  140.3871  160.9952 C.ar    1  UNL1        0.1765
     19 C         141.9488  140.5441  162.3023 C.ar    1  UNL1        0.0433
     20 O         142.8023  141.2946  159.8085 O.3     1  UNL1       -0.4346
     21 C         143.6486  140.5971  158.7852 C.3     1  UNL1        0.4294
     22 O         144.0369  139.2584  159.3395 O.3     1  UNL1       -0.4346
     23 C         142.8509  143.0254  170.4780 C.3     1  UNL1        0.2525
     24 O         141.8954  141.8943  170.7176 O.3     1  UNL1       -0.4713
@<TRIPOS>BOND
     1    23    24    1
     2    24     1    1
     3     1     2   ar
     4     2     3   ar
     5     3     4   ar
     6     4     5   ar
     7     5     6    2
     8     5     7   ar
     9     7     8    1
    10     7     9   ar
    11     9    14    1
    12    14    15   ar
    13    15    16   ar
    14    16    17   ar
    15    17    18   ar
    16    18    19   ar
    17    18    20    1
    18    20    21    1
    19    21    22    1
    20     9    10   ar
    21    10    11   ar
    22    11    12   ar
    23    12     1   ar
    24    11     4   ar
    25    19    14   ar
    26    22    17    1
    27     8    13    1
@<TRIPOS>MOLECULE
*****
 24 27 0 0 0
SMALL
GASTEIGER

@<TRIPOS>ATOM
      1 C         142.8744  143.1993  160.1891 C.ar    1  UNL1        0.1418
      2 C         141.8601  144.2127  159.7486 C.ar    1  UNL1        0.0372
      3 C         140.6709  144.5086  160.6137 C.ar    1  UNL1        0.0095
      4 C         140.4960  143.7911  161.9192 C.ar    1  UNL1        0.0768
      5 C         139.3069  144.0870  162.7842 C.ar    1  UNL1        0.2350
      6 O         138.2926  145.1004  162.3437 O.2     1  UNL1       -0.2831
      7 C         139.1320  143.3694  164.0898 C.ar    1  UNL1        0.2081
      8 O         137.9428  143.6653  164.9548 O.3     1  UNL1       -0.5007
      9 C         140.1463  142.3559  164.5304 C.ar    1  UNL1        0.1819
     10 O         141.3355  142.0600  163.6653 O.2     1  UNL1       -0.4501
     11 C         141.5103  142.7776  162.3597 C.ar    1  UNL1        0.1516
     12 C         142.6995  142.4817  161.4947 C.ar    1  UNL1        0.0744
     13 H         137.3092  144.2984  164.6796 H       1  UNL1        0.2924
     14 C         139.9714  141.6384  165.8359 C.ar    1  UNL1        0.0409
     15 C         139.2275  140.3367  165.8825 C.ar    1  UNL1        0.0065
     16 C         139.0526  139.6191  167.1882 C.ar    1  UNL1        0.0403
     17 C         139.6216  140.2033  168.4471 C.ar    1  UNL1        0.1764
     18 C         140.3655  141.5050  168.4005 C.ar    1  UNL1        0.1765
     19 C         140.5404  142.2226  167.0949 C.ar    1  UNL1        0.0433
     20 O         140.8118  141.8340  169.7943 O.3     1  UNL1       -0.4346
     21 C         140.3437  140.7357  170.7023 C.3     1  UNL1        0.4294
     22 O         139.6081  139.7278  169.8697 O.3     1  UNL1       -0.4346
     23 C         143.8840  142.6865  157.8508 C.3     1  UNL1        0.2525
     24 O         144.0636  142.9034  159.3241 O.3     1  UNL1       -0.4713
@<TRIPOS>BOND
     1    23    24    1
     2    24     1    1
     3     1     2   ar
     4     2     3   ar
     5     3     4   ar
     6     4     5   ar
     7     5     6    2
     8     5     7   ar
     9     7     8    1
    10     7     9   ar
    11     9    14    1
    12    14    15   ar
    13    15    16   ar
    14    16    17   ar
    15    17    18   ar
    16    18    19   ar
    17    18    20    1
    18    20    21    1
    19    21    22    1
    20     9    10   ar
    21    10    11   ar
    22    11    12   ar
    23    12     1   ar
    24    11     4   ar
    25    19    14   ar
    26    22    17    1
    27     8    13    1
@<TRIPOS>MOLECULE
*****
 24 27 0 0 0
SMALL
GASTEIGER

@<TRIPOS>ATOM
      1 C         142.2800  143.9889  160.5737 C.ar    1  UNL1        0.1418
      2 C         143.0408  142.8800  159.9093 C.ar    1  UNL1        0.0372
      3 C         143.5146  141.7074  160.7158 C.ar    1  UNL1        0.0095
      4 C         143.2277  141.6437  162.1867 C.ar    1  UNL1        0.0768
      5 C         143.7015  140.4710  162.9932 C.ar    1  UNL1        0.2350
      6 O         144.4623  139.3621  162.3288 O.2     1  UNL1       -0.2831
      7 C         143.4146  140.4073  164.4641 C.ar    1  UNL1        0.2081
      8 O         143.8884  139.2347  165.2706 O.3     1  UNL1       -0.5007
      9 C         142.6537  141.5163  165.1286 C.ar    1  UNL1        0.1819
     10 O         142.1799  142.6889  164.3221 O.2     1  UNL1       -0.4501
     11 C         142.4669  142.7526  162.8511 C.ar    1  UNL1        0.1516
     12 C         141.9931  143.9252  162.0446 C.ar    1  UNL1        0.0744
     13 H         144.3636  138.5420  164.8556 H       1  UNL1        0.2924
     14 C         142.3668  141.4526  166.5995 C.ar    1  UNL1        0.0409
     15 C         143.1700  142.2821  167.5569 C.ar    1  UNL1        0.0065
     16 C         142.8830  142.2183  169.0279 C.ar    1  UNL1        0.0403
     17 C         141.7928  141.3251  169.5413 C.ar    1  UNL1        0.1764
     18 C         140.9896  140.4956  168.5838 C.ar    1  UNL1        0.1765
     19 C         141.2766  140.5593  167.1129 C.ar    1  UNL1        0.0433
     20 O         139.9852  139.7138  169.3776 O.3     1  UNL1       -0.4346
     21 C         140.1677  140.0601  170.8256 C.3     1  UNL1        0.4294
     22 O         141.2848  141.0560  170.9268 O.3     1  UNL1       -0.4346
     23 C         140.3589  145.2771  159.3907 C.3     1  UNL1        0.2525
     24 O         141.8062  145.1615  159.7672 O.3     1  UNL1       -0.4713
@<TRIPOS>BOND
     1    23    24    1
     2    24     1    1
     3     1     2   ar
     4     2     3   ar
     5     3     4   ar
     6     4     5   ar
     7     5     6    2
     8     5     7   ar
     9     7     8    1
    10     7     9   ar
    11     9    14    1
    12    14    15   ar
    13    15    16   ar
    14    16    17   ar
    15    17    18   ar
    16    18    19   ar
    17    18    20    1
    18    20    21    1
    19    21    22    1
    20     9    10   ar
    21    10    11   ar
    22    11    12   ar
    23    12     1   ar
    24    11     4   ar
    25    19    14   ar
    26    22    17    1
    27     8    13    1
