@<TRIPOS>MOLECULE
*****
 43 47 0 0 0
SMALL
GASTEIGER

@<TRIPOS>ATOM
      1 N         142.1224  135.7358  156.4143 N.ar    1  UNL1       -0.2342
      2 N         142.9137  136.2590  157.5762 N.ar    1  UNL1       -0.1679
      3 C         142.2217  137.4851  158.0937 C.ar    1  UNL1        0.1065
      4 C         141.0028  137.7198  157.2515 C.ar    1  UNL1        0.0860
      5 C         139.9409  138.7782  157.2957 C.ar    1  UNL1        0.1316
      6 N         140.0022  139.8593  158.3337 N.pl3   1  UNL1       -0.3425
      7 N         138.8176  138.7554  156.3020 N.ar    1  UNL1       -0.2093
      8 C         138.7562  137.6743  155.2640 C.ar    1  UNL1        0.2014
      9 N         139.8181  136.6159  155.2198 N.ar    1  UNL1       -0.2050
     10 C         140.9414  136.6386  156.2136 C.ar    1  UNL1        0.1653
     11 H         140.7395  139.8742  158.9859 H       1  UNL1        0.1437
     12 H         139.3052  140.5540  158.3627 H       1  UNL1        0.1437
     13 C         144.5973  131.1963  155.8970 C.2     1  UNL1        0.2492
     14 O         145.1718  131.3526  157.2738 O.2     1  UNL1       -0.2699
     15 N         143.6914  132.2530  155.3379 N.am    1  UNL1       -0.2741
     16 C         143.1170  132.0967  153.9611 C.3     1  UNL1        0.0938
     17 C         142.2111  133.1535  153.4020 C.3     1  UNL1        0.0236
     18 C         141.8796  134.3665  154.2198 C.3     1  UNL1        0.0279
     19 C         142.4539  134.5228  155.5965 C.3     1  UNL1        0.1266
     20 C         143.3599  133.4660  156.1556 C.3     1  UNL1        0.1180
     21 C         144.7289  128.6128  155.6554 C.2     1  UNL1        0.0048
     22 C         144.9288  129.9833  155.0793 C.2     1  UNL1        0.0579
     23 C         142.6700  138.3286  159.2503 C.ar    1  UNL1        0.0197
     24 C         143.3794  139.6267  159.0014 C.ar    1  UNL1        0.0016
     25 C         143.8277  140.4702  160.1579 C.ar    1  UNL1        0.0002
     26 C         143.5665  140.0157  161.5633 C.ar    1  UNL1        0.0045
     27 C         142.8570  138.7177  161.8122 C.ar    1  UNL1        0.0534
     28 C         142.4088  137.8742  160.6556 C.ar    1  UNL1        0.0061
     29 C         142.5958  138.2632  163.2176 C.2     1  UNL1        0.2461
     30 O         141.4603  137.3260  163.5040 O.2     1  UNL1       -0.2701
     31 N         143.4703  138.7459  164.3367 N.am    1  UNL1       -0.2969
     32 H         144.2156  139.3610  164.1488 H       1  UNL1        0.1501
     33 C         143.2091  138.2914  165.7421 C.3     1  UNL1        0.1166
     34 C         142.5104  139.2025  166.7074 C.ar    1  UNL1       -0.0026
     35 C         141.4554  140.1489  166.2160 C.ar    1  UNL1       -0.0029
     36 C         140.7567  141.0600  167.1813 C.ar    1  UNL1       -0.0046
     37 C         141.1130  141.0247  168.6379 C.ar    1  UNL1       -0.0228
     38 C         142.1679  140.0783  169.1293 C.ar    1  UNL1       -0.0046
     39 C         142.8666  139.1672  168.1640 C.ar    1  UNL1       -0.0029
     40 C         140.4143  141.9358  169.6032 C.3     1  UNL1        0.0189
     41 C         139.3219  140.9214  169.7698 C.3     1  UNL1        0.0044
     42 C         141.5067  142.9502  169.4365 C.3     1  UNL1        0.0044
     43 C         139.7156  142.8469  170.5685 C.3     1  UNL1        0.0044
@<TRIPOS>BOND
     1    21    22    2
     2    22    13    1
     3    13    14    2
     4    13    15   am
     5    15    16    1
     6    16    17    1
     7    17    18    1
     8    18    19    1
     9    19     1    1
    10     1     2   ar
    11     2     3   ar
    12     3    23    1
    13    23    24   ar
    14    24    25   ar
    15    25    26   ar
    16    26    27   ar
    17    27    29    1
    18    29    30    2
    19    29    31   am
    20    31    33    1
    21    33    34    1
    22    34    35   ar
    23    35    36   ar
    24    36    37   ar
    25    37    40    1
    26    40    41    1
    27    40    42    1
    28    40    43    1
    29    37    38   ar
    30    38    39   ar
    31    27    28   ar
    32     3     4   ar
    33     4     5   ar
    34     5     6    1
    35     5     7   ar
    36     7     8   ar
    37     8     9   ar
    38     9    10   ar
    39    19    20    1
    40    20    15    1
    41    10     1   ar
    42    28    23   ar
    43    10     4   ar
    44    39    34   ar
    45    31    32    1
    46     6    11    1
    47     6    12    1
@<TRIPOS>MOLECULE
*****
 43 47 0 0 0
SMALL
GASTEIGER

@<TRIPOS>ATOM
      1 N         139.7657  140.1152  163.1177 N.ar    1  UNL1       -0.2342
      2 N         139.0261  141.0002  162.1587 N.ar    1  UNL1       -0.1679
      3 C         139.6975  140.8976  160.8213 C.ar    1  UNL1        0.1065
      4 C         140.8521  139.9492  160.9538 C.ar    1  UNL1        0.0860
      5 C         141.8704  139.4634  159.9654 C.ar    1  UNL1        0.1316
      6 N         141.8283  139.9469  158.5461 N.pl3   1  UNL1       -0.3425
      7 N         142.9309  138.4941  160.3963 N.ar    1  UNL1       -0.2093
      8 C         142.9730  138.0105  161.8156 C.ar    1  UNL1        0.2014
      9 N         141.9547  138.4963  162.8040 N.ar    1  UNL1       -0.2050
     10 C         140.8942  139.4656  162.3731 C.ar    1  UNL1        0.1653
     11 H         141.1322  140.5831  158.2633 H       1  UNL1        0.1437
     12 H         142.4967  139.6281  157.8974 H       1  UNL1        0.1437
     13 C         140.3099  141.5134  168.0926 C.2     1  UNL1        0.2492
     14 O         141.2435  142.6131  167.6814 O.2     1  UNL1       -0.2699
     15 N         139.7070  140.6140  167.0545 N.am    1  UNL1       -0.2741
     16 C         138.7734  139.5144  167.4657 C.3     1  UNL1        0.0938
     17 C         138.1705  138.6150  166.4276 C.3     1  UNL1        0.0236
     18 C         138.5013  138.8153  164.9783 C.3     1  UNL1        0.0279
     19 C         139.4349  139.9149  164.5670 C.3     1  UNL1        0.1266
     20 C         140.0378  140.8143  165.6052 C.3     1  UNL1        0.1180
     21 C         139.7366  142.4999  170.4268 C.2     1  UNL1        0.0048
     22 C         139.9791  141.3132  169.5419 C.2     1  UNL1        0.0579
     23 C         139.2866  141.6171  159.5709 C.ar    1  UNL1        0.0197
     24 C         139.8634  142.9659  159.2577 C.ar    1  UNL1        0.0016
     25 C         139.4525  143.6854  158.0073 C.ar    1  UNL1        0.0002
     26 C         138.4647  143.0561  157.0701 C.ar    1  UNL1        0.0045
     27 C         137.8879  141.7074  157.3833 C.ar    1  UNL1        0.0534
     28 C         138.2989  140.9879  158.6337 C.ar    1  UNL1        0.0061
     29 C         136.9002  141.0781  156.4461 C.2     1  UNL1        0.2461
     30 O         137.1507  139.7013  155.9061 O.2     1  UNL1       -0.2701
     31 N         135.6619  141.8256  156.0489 N.am    1  UNL1       -0.2969
     32 H         135.4974  142.7293  156.4033 H       1  UNL1        0.1501
     33 C         134.6741  141.1963  155.1117 C.3     1  UNL1        0.1166
     34 C         133.4508  140.5195  155.6551 C.ar    1  UNL1       -0.0026
     35 C         133.5487  139.1328  156.2187 C.ar    1  UNL1       -0.0029
     36 C         132.3253  138.4560  156.7621 C.ar    1  UNL1       -0.0046
     37 C         131.0040  139.1658  156.7419 C.ar    1  UNL1       -0.0228
     38 C         130.9062  140.5524  156.1784 C.ar    1  UNL1       -0.0046
     39 C         132.1295  141.2293  155.6349 C.ar    1  UNL1       -0.0029
     40 C         129.7807  138.4890  157.2853 C.3     1  UNL1        0.0189
     41 C         129.6917  137.6528  156.0432 C.3     1  UNL1        0.0044
     42 C         129.8697  139.3252  158.5274 C.3     1  UNL1        0.0044
     43 C         128.5573  137.8122  157.8288 C.3     1  UNL1        0.0044
@<TRIPOS>BOND
     1    21    22    2
     2    22    13    1
     3    13    14    2
     4    13    15   am
     5    15    16    1
     6    16    17    1
     7    17    18    1
     8    18    19    1
     9    19     1    1
    10     1     2   ar
    11     2     3   ar
    12     3    23    1
    13    23    24   ar
    14    24    25   ar
    15    25    26   ar
    16    26    27   ar
    17    27    29    1
    18    29    30    2
    19    29    31   am
    20    31    33    1
    21    33    34    1
    22    34    35   ar
    23    35    36   ar
    24    36    37   ar
    25    37    40    1
    26    40    41    1
    27    40    42    1
    28    40    43    1
    29    37    38   ar
    30    38    39   ar
    31    27    28   ar
    32     3     4   ar
    33     4     5   ar
    34     5     6    1
    35     5     7   ar
    36     7     8   ar
    37     8     9   ar
    38     9    10   ar
    39    19    20    1
    40    20    15    1
    41    10     1   ar
    42    28    23   ar
    43    10     4   ar
    44    39    34   ar
    45    31    32    1
    46     6    11    1
    47     6    12    1
@<TRIPOS>MOLECULE
*****
 43 47 0 0 0
SMALL
GASTEIGER

@<TRIPOS>ATOM
      1 N         140.3615  137.9648  155.8360 N.ar    1  UNL1       -0.2342
      2 N         140.8133  139.0373  156.7823 N.ar    1  UNL1       -0.1679
      3 C         139.7022  140.0362  156.9153 C.ar    1  UNL1        0.1065
      4 C         138.5637  139.5810  156.0511 C.ar    1  UNL1        0.0860
      5 C         137.2087  140.1669  155.7855 C.ar    1  UNL1        0.1316
      6 N         136.8012  141.4471  156.4526 N.pl3   1  UNL1       -0.3425
      7 N         136.2611  139.4725  154.8529 N.ar    1  UNL1       -0.2093
      8 C         136.6686  138.1922  154.1858 C.ar    1  UNL1        0.2014
      9 N         138.0237  137.6064  154.4514 N.ar    1  UNL1       -0.2050
     10 C         138.9712  138.3008  155.3841 C.ar    1  UNL1        0.1653
     11 H         137.4231  141.9028  157.0647 H       1  UNL1        0.1437
     12 H         135.9118  141.8316  156.2782 H       1  UNL1        0.1437
     13 C         143.4875  133.9921  157.0385 C.2     1  UNL1        0.2492
     14 O         143.4538  134.4022  158.4810 O.2     1  UNL1       -0.2699
     15 N         142.7229  134.7802  156.0167 N.am    1  UNL1       -0.2741
     16 C         142.7566  134.3701  154.5742 C.3     1  UNL1        0.0938
     17 C         141.9919  135.1582  153.5524 C.3     1  UNL1        0.0236
     18 C         141.1936  136.3564  153.9730 C.3     1  UNL1        0.0279
     19 C         141.1598  136.7666  155.4154 C.3     1  UNL1        0.1266
     20 C         141.9245  135.9784  156.4373 C.3     1  UNL1        0.1180
     21 C         145.1577  132.0867  157.6128 C.2     1  UNL1        0.0048
     22 C         144.2858  132.7939  156.6179 C.2     1  UNL1        0.0579
     23 C         139.7254  141.2732  157.7635 C.ar    1  UNL1        0.0197
     24 C         140.4295  142.5044  157.2750 C.ar    1  UNL1        0.0016
     25 C         140.4528  143.7414  158.1232 C.ar    1  UNL1        0.0002
     26 C         139.7720  143.7471  159.4598 C.ar    1  UNL1        0.0045
     27 C         139.0679  142.5160  159.9482 C.ar    1  UNL1        0.0534
     28 C         139.0447  141.2790  159.1000 C.ar    1  UNL1        0.0061
     29 C         138.3872  142.5218  161.2848 C.2     1  UNL1        0.2461
     30 O         137.9301  143.8168  161.8881 O.2     1  UNL1       -0.2701
     31 N         138.1634  141.2325  162.0181 N.am    1  UNL1       -0.2969
     32 H         138.4634  140.3825  161.6221 H       1  UNL1        0.1501
     33 C         137.4826  141.2383  163.3547 C.3     1  UNL1        0.1166
     34 C         138.2716  140.9589  164.5995 C.ar    1  UNL1       -0.0026
     35 C         139.2802  141.9561  165.0879 C.ar    1  UNL1       -0.0029
     36 C         140.0691  141.6767  166.3327 C.ar    1  UNL1       -0.0046
     37 C         139.8496  140.4001  167.0890 C.ar    1  UNL1       -0.0228
     38 C         138.8411  139.4029  166.6006 C.ar    1  UNL1       -0.0046
     39 C         138.0521  139.6823  165.3558 C.ar    1  UNL1       -0.0029
     40 C         140.6386  140.1207  168.3338 C.3     1  UNL1        0.0189
     41 C         139.4174  140.3788  169.1657 C.3     1  UNL1        0.0044
     42 C         141.8598  139.8625  167.5018 C.3     1  UNL1        0.0044
     43 C         141.4276  139.8413  169.5786 C.3     1  UNL1        0.0044
@<TRIPOS>BOND
     1    21    22    2
     2    22    13    1
     3    13    14    2
     4    13    15   am
     5    15    16    1
     6    16    17    1
     7    17    18    1
     8    18    19    1
     9    19     1    1
    10     1     2   ar
    11     2     3   ar
    12     3    23    1
    13    23    24   ar
    14    24    25   ar
    15    25    26   ar
    16    26    27   ar
    17    27    29    1
    18    29    30    2
    19    29    31   am
    20    31    33    1
    21    33    34    1
    22    34    35   ar
    23    35    36   ar
    24    36    37   ar
    25    37    40    1
    26    40    41    1
    27    40    42    1
    28    40    43    1
    29    37    38   ar
    30    38    39   ar
    31    27    28   ar
    32     3     4   ar
    33     4     5   ar
    34     5     6    1
    35     5     7   ar
    36     7     8   ar
    37     8     9   ar
    38     9    10   ar
    39    19    20    1
    40    20    15    1
    41    10     1   ar
    42    28    23   ar
    43    10     4   ar
    44    39    34   ar
    45    31    32    1
    46     6    11    1
    47     6    12    1
@<TRIPOS>MOLECULE
*****
 43 47 0 0 0
SMALL
GASTEIGER

@<TRIPOS>ATOM
      1 N         140.3016  139.7743  163.3729 N.ar    1  UNL1       -0.2342
      2 N         139.4953  139.8043  162.1084 N.ar    1  UNL1       -0.1679
      3 C         140.4485  139.8773  160.9526 C.ar    1  UNL1        0.1065
      4 C         141.8439  139.8923  161.5027 C.ar    1  UNL1        0.0860
      5 C         143.1855  139.9558  160.8347 C.ar    1  UNL1        0.1316
      6 N         143.2763  140.0194  159.3388 N.pl3   1  UNL1       -0.3425
      7 N         144.4362  139.9556  161.6627 N.ar    1  UNL1       -0.2093
      8 C         144.3454  139.8920  163.1586 C.ar    1  UNL1        0.2014
      9 N         143.0039  139.8285  163.8265 N.ar    1  UNL1       -0.2050
     10 C         141.7531  139.8287  162.9986 C.ar    1  UNL1        0.1653
     11 H         142.4553  140.0196  158.7954 H       1  UNL1        0.1437
     12 H         144.1568  140.0611  158.9004 H       1  UNL1        0.1437
     13 C         140.2208  141.5046  168.2719 C.2     1  UNL1        0.2492
     14 O         141.2780  142.5133  167.9331 O.2     1  UNL1       -0.2699
     15 N         139.7124  140.5676  167.2166 N.am    1  UNL1       -0.2741
     16 C         138.6552  139.5589  167.5554 C.3     1  UNL1        0.0938
     17 C         138.1468  138.6220  166.5001 C.3     1  UNL1        0.0236
     18 C         138.6957  138.6938  165.1059 C.3     1  UNL1        0.0279
     19 C         139.7528  139.7025  164.7671 C.3     1  UNL1        0.1266
     20 C         140.2612  140.6394  165.8225 C.3     1  UNL1        0.1180
     21 C         139.8129  142.6069  170.5890 C.2     1  UNL1        0.0048
     22 C         139.6720  141.4327  169.6660 C.2     1  UNL1        0.0579
     23 C         140.0724  139.9265  159.5013 C.ar    1  UNL1        0.0197
     24 C         139.6341  141.2213  158.8836 C.ar    1  UNL1        0.0016
     25 C         139.2579  141.2705  157.4324 C.ar    1  UNL1        0.0002
     26 C         139.3201  140.0250  156.5988 C.ar    1  UNL1        0.0045
     27 C         139.7584  138.7303  157.2165 C.ar    1  UNL1        0.0534
     28 C         140.1345  138.6811  158.6677 C.ar    1  UNL1        0.0061
     29 C         139.8205  137.4848  156.3829 C.2     1  UNL1        0.2461
     30 O         138.5551  136.8506  155.8865 O.2     1  UNL1       -0.2701
     31 N         141.1482  136.8735  156.0458 N.am    1  UNL1       -0.2969
     32 H         141.9787  137.2897  156.3716 H       1  UNL1        0.1501
     33 C         141.2103  135.6280  155.2122 C.3     1  UNL1        0.1166
     34 C         141.9118  134.4096  155.7352 C.ar    1  UNL1       -0.0026
     35 C         141.4079  133.0426  155.3780 C.ar    1  UNL1       -0.0029
     36 C         142.1094  131.8243  155.9011 C.ar    1  UNL1       -0.0046
     37 C         143.3148  131.9729  156.7813 C.ar    1  UNL1       -0.0228
     38 C         143.8187  133.3398  157.1385 C.ar    1  UNL1       -0.0046
     39 C         143.1173  134.5582  156.6155 C.ar    1  UNL1       -0.0029
     40 C         144.0163  130.7546  157.3044 C.3     1  UNL1        0.0189
     41 C         145.0578  131.6272  157.9399 C.3     1  UNL1        0.0044
     42 C         142.9748  129.8820  156.6689 C.3     1  UNL1        0.0044
     43 C         144.7178  129.5363  157.8274 C.3     1  UNL1        0.0044
@<TRIPOS>BOND
     1    21    22    2
     2    22    13    1
     3    13    14    2
     4    13    15   am
     5    15    16    1
     6    16    17    1
     7    17    18    1
     8    18    19    1
     9    19     1    1
    10     1     2   ar
    11     2     3   ar
    12     3    23    1
    13    23    24   ar
    14    24    25   ar
    15    25    26   ar
    16    26    27   ar
    17    27    29    1
    18    29    30    2
    19    29    31   am
    20    31    33    1
    21    33    34    1
    22    34    35   ar
    23    35    36   ar
    24    36    37   ar
    25    37    40    1
    26    40    41    1
    27    40    42    1
    28    40    43    1
    29    37    38   ar
    30    38    39   ar
    31    27    28   ar
    32     3     4   ar
    33     4     5   ar
    34     5     6    1
    35     5     7   ar
    36     7     8   ar
    37     8     9   ar
    38     9    10   ar
    39    19    20    1
    40    20    15    1
    41    10     1   ar
    42    28    23   ar
    43    10     4   ar
    44    39    34   ar
    45    31    32    1
    46     6    11    1
    47     6    12    1
@<TRIPOS>MOLECULE
*****
 43 47 0 0 0
SMALL
GASTEIGER

@<TRIPOS>ATOM
      1 N         139.0953  144.6545  155.7226 N.ar    1  UNL1       -0.2342
      2 N         139.7749  143.9983  156.8877 N.ar    1  UNL1       -0.1679
      3 C         139.0326  142.7341  157.2054 C.ar    1  UNL1        0.1065
      4 C         137.8942  142.6090  156.2367 C.ar    1  UNL1        0.0860
      5 C         136.8274  141.5678  156.0706 C.ar    1  UNL1        0.1316
      6 N         136.7887  140.3809  156.9870 N.pl3   1  UNL1       -0.3425
      7 N         135.7993  141.7134  154.9881 N.ar    1  UNL1       -0.2093
      8 C         135.8380  142.9002  154.0717 C.ar    1  UNL1        0.2014
      9 N         136.9049  143.9415  154.2378 N.ar    1  UNL1       -0.2050
     10 C         137.9330  143.7959  155.3202 C.ar    1  UNL1        0.1653
     11 H         137.4635  140.2853  157.6975 H       1  UNL1        0.1437
     12 H         136.0885  139.6975  156.8780 H       1  UNL1        0.1437
     13 C         138.8274  149.8360  155.4406 C.2     1  UNL1        0.2492
     14 O         137.8724  149.8496  156.5972 O.2     1  UNL1       -0.2699
     15 N         139.3719  148.5339  154.9328 N.am    1  UNL1       -0.2741
     16 C         140.3269  148.5203  153.7762 C.3     1  UNL1        0.0938
     17 C         140.8714  147.2181  153.2684 C.3     1  UNL1        0.0236
     18 C         140.4608  145.9295  153.9172 C.3     1  UNL1        0.0279
     19 C         139.5058  145.9431  155.0738 C.3     1  UNL1        0.1266
     20 C         138.9613  147.2453  155.5816 C.3     1  UNL1        0.1180
     21 C         138.5127  152.3954  155.1226 C.2     1  UNL1        0.0048
     22 C         139.2380  151.1246  154.7918 C.2     1  UNL1        0.0579
     23 C         139.3695  141.7651  158.2997 C.ar    1  UNL1        0.0197
     24 C         140.3326  140.6449  158.0393 C.ar    1  UNL1        0.0016
     25 C         140.6695  139.6759  159.1337 C.ar    1  UNL1        0.0002
     26 C         140.0434  139.8270  160.4883 C.ar    1  UNL1        0.0045
     27 C         139.0804  140.9472  160.7487 C.ar    1  UNL1        0.0534
     28 C         138.7435  141.9162  159.6543 C.ar    1  UNL1        0.0061
     29 C         138.4543  141.0984  162.1033 C.2     1  UNL1        0.2461
     30 O         137.3224  142.0621  162.3032 O.2     1  UNL1       -0.2701
     31 N         138.9601  140.2857  163.2582 N.am    1  UNL1       -0.2969
     32 H         139.7030  139.6531  163.1271 H       1  UNL1        0.1501
     33 C         138.3340  140.4369  164.6129 C.3     1  UNL1        0.1166
     34 C         139.1385  140.9851  165.7541 C.ar    1  UNL1       -0.0026
     35 C         139.6524  142.3934  165.7010 C.ar    1  UNL1       -0.0029
     36 C         140.4570  142.9417  166.8422 C.ar    1  UNL1       -0.0046
     37 C         140.7476  142.0817  168.0363 C.ar    1  UNL1       -0.0228
     38 C         140.2337  140.6734  168.0893 C.ar    1  UNL1       -0.0046
     39 C         139.4292  140.1251  166.9482 C.ar    1  UNL1       -0.0029
     40 C         141.5522  142.6299  169.1774 C.3     1  UNL1        0.0189
     41 C         142.6882  141.7206  168.8132 C.3     1  UNL1        0.0044
     42 C         140.4161  143.5392  169.5416 C.3     1  UNL1        0.0044
     43 C         142.3567  143.1781  170.3186 C.3     1  UNL1        0.0044
@<TRIPOS>BOND
     1    21    22    2
     2    22    13    1
     3    13    14    2
     4    13    15   am
     5    15    16    1
     6    16    17    1
     7    17    18    1
     8    18    19    1
     9    19     1    1
    10     1     2   ar
    11     2     3   ar
    12     3    23    1
    13    23    24   ar
    14    24    25   ar
    15    25    26   ar
    16    26    27   ar
    17    27    29    1
    18    29    30    2
    19    29    31   am
    20    31    33    1
    21    33    34    1
    22    34    35   ar
    23    35    36   ar
    24    36    37   ar
    25    37    40    1
    26    40    41    1
    27    40    42    1
    28    40    43    1
    29    37    38   ar
    30    38    39   ar
    31    27    28   ar
    32     3     4   ar
    33     4     5   ar
    34     5     6    1
    35     5     7   ar
    36     7     8   ar
    37     8     9   ar
    38     9    10   ar
    39    19    20    1
    40    20    15    1
    41    10     1   ar
    42    28    23   ar
    43    10     4   ar
    44    39    34   ar
    45    31    32    1
    46     6    11    1
    47     6    12    1
@<TRIPOS>MOLECULE
*****
 43 47 0 0 0
SMALL
GASTEIGER

@<TRIPOS>ATOM
      1 N         136.9583  141.3691  156.3906 N.ar    1  UNL1       -0.2342
      2 N         137.4827  142.6856  156.8823 N.ar    1  UNL1       -0.1679
      3 C         138.9698  142.5636  157.0365 C.ar    1  UNL1        0.1065
      4 C         139.3644  141.1718  156.6401 C.ar    1  UNL1        0.0860
      5 C         140.6951  140.4814  156.5910 C.ar    1  UNL1        0.1316
      6 N         141.9383  141.2197  156.9902 N.pl3   1  UNL1       -0.3425
      7 N         140.7826  139.0526  156.1428 N.ar    1  UNL1       -0.2093
      8 C         139.5394  138.3143  155.7437 C.ar    1  UNL1        0.2014
      9 N         138.2087  139.0048  155.7927 N.ar    1  UNL1       -0.2050
     10 C         138.1212  140.4335  156.2409 C.ar    1  UNL1        0.1653
     11 H         141.8809  142.1574  157.2844 H       1  UNL1        0.1437
     12 H         142.8117  140.7665  156.9580 H       1  UNL1        0.1437
     13 C         132.5962  138.8034  157.5693 C.2     1  UNL1        0.2492
     14 O         133.2859  138.1688  158.7404 O.2     1  UNL1       -0.2699
     15 N         133.3418  139.7621  156.6891 N.am    1  UNL1       -0.2741
     16 C         132.6521  140.3967  155.5179 C.3     1  UNL1        0.0938
     17 C         133.3978  141.3555  154.6377 C.3     1  UNL1        0.0236
     18 C         134.8331  141.6796  154.9287 C.3     1  UNL1        0.0279
     19 C         135.5229  141.0450  156.0997 C.3     1  UNL1        0.1266
     20 C         134.7772  140.0862  156.9800 C.3     1  UNL1        0.1180
     21 C         130.1779  138.3506  158.4043 C.2     1  UNL1        0.0048
     22 C         131.1608  138.4793  157.2784 C.2     1  UNL1        0.0579
     23 C         139.8992  143.6439  157.5048 C.ar    1  UNL1        0.0197
     24 C         140.7391  144.3928  156.5129 C.ar    1  UNL1        0.0016
     25 C         141.6685  145.4731  156.9813 C.ar    1  UNL1        0.0002
     26 C         141.7579  145.8044  158.4415 C.ar    1  UNL1        0.0045
     27 C         140.9180  145.0556  159.4333 C.ar    1  UNL1        0.0534
     28 C         139.9887  143.9753  158.9649 C.ar    1  UNL1        0.0061
     29 C         141.0075  145.3870  160.8935 C.2     1  UNL1        0.2461
     30 O         139.9279  146.1985  161.5460 O.2     1  UNL1       -0.2701
     31 N         142.1767  144.9068  161.7013 N.am    1  UNL1       -0.2969
     32 H         142.8854  144.3742  161.2730 H       1  UNL1        0.1501
     33 C         142.2662  145.2382  163.1614 C.3     1  UNL1        0.1166
     34 C         141.7429  144.2726  164.1831 C.ar    1  UNL1       -0.0026
     35 C         142.6726  143.2903  164.8320 C.ar    1  UNL1       -0.0029
     36 C         142.1493  142.3247  165.8537 C.ar    1  UNL1       -0.0046
     37 C         140.6965  142.3413  166.2265 C.ar    1  UNL1       -0.0228
     38 C         139.7669  143.3236  165.5776 C.ar    1  UNL1       -0.0046
     39 C         140.2901  144.2892  164.5559 C.ar    1  UNL1       -0.0029
     40 C         140.1732  141.3757  167.2482 C.3     1  UNL1        0.0189
     41 C         140.8727  142.1426  168.3311 C.3     1  UNL1        0.0044
     42 C         139.4739  140.6088  166.1652 C.3     1  UNL1        0.0044
     43 C         139.6500  140.4101  168.2698 C.3     1  UNL1        0.0044
@<TRIPOS>BOND
     1    21    22    2
     2    22    13    1
     3    13    14    2
     4    13    15   am
     5    15    16    1
     6    16    17    1
     7    17    18    1
     8    18    19    1
     9    19     1    1
    10     1     2   ar
    11     2     3   ar
    12     3    23    1
    13    23    24   ar
    14    24    25   ar
    15    25    26   ar
    16    26    27   ar
    17    27    29    1
    18    29    30    2
    19    29    31   am
    20    31    33    1
    21    33    34    1
    22    34    35   ar
    23    35    36   ar
    24    36    37   ar
    25    37    40    1
    26    40    41    1
    27    40    42    1
    28    40    43    1
    29    37    38   ar
    30    38    39   ar
    31    27    28   ar
    32     3     4   ar
    33     4     5   ar
    34     5     6    1
    35     5     7   ar
    36     7     8   ar
    37     8     9   ar
    38     9    10   ar
    39    19    20    1
    40    20    15    1
    41    10     1   ar
    42    28    23   ar
    43    10     4   ar
    44    39    34   ar
    45    31    32    1
    46     6    11    1
    47     6    12    1
@<TRIPOS>MOLECULE
*****
 43 47 0 0 0
SMALL
GASTEIGER

@<TRIPOS>ATOM
      1 N         142.2358  136.2973  155.9102 N.ar    1  UNL1       -0.2342
      2 N         140.9796  136.6849  156.6325 N.ar    1  UNL1       -0.1679
      3 C         141.1104  138.1189  157.0527 C.ar    1  UNL1        0.1065
      4 C         142.4473  138.6175  156.5901 C.ar    1  UNL1        0.0860
      5 C         143.1212  139.9512  156.7206 C.ar    1  UNL1        0.1316
      6 N         142.4256  141.0771  157.4267 N.pl3   1  UNL1       -0.3425
      7 N         144.4906  140.1591  156.1449 N.ar    1  UNL1       -0.2093
      8 C         145.1862  139.0332  155.4387 C.ar    1  UNL1        0.2014
      9 N         144.5123  137.6995  155.3083 N.ar    1  UNL1       -0.2050
     10 C         143.1429  137.4917  155.8839 C.ar    1  UNL1        0.1653
     11 H         141.5268  140.9407  157.8045 H       1  UNL1        0.1437
     12 H         142.8679  141.9525  157.5124 H       1  UNL1        0.1437
     13 C         144.6693  131.7126  156.1514 C.2     1  UNL1        0.2492
     14 O         145.2921  132.1118  157.4563 O.2     1  UNL1       -0.2699
     15 N         143.7496  132.6591  155.4386 N.am    1  UNL1       -0.2741
     16 C         143.1268  132.2599  154.1337 C.3     1  UNL1        0.0938
     17 C         142.2071  133.2065  153.4210 C.3     1  UNL1        0.0236
     18 C         141.9101  134.5523  154.0131 C.3     1  UNL1        0.0279
     19 C         142.5328  134.9515  155.3180 C.3     1  UNL1        0.1266
     20 C         143.4526  134.0049  156.0308 C.3     1  UNL1        0.1180
     21 C         144.2506  129.1498  156.0661 C.2     1  UNL1        0.0048
     22 C         144.9663  130.3668  155.5592 C.2     1  UNL1        0.0579
     23 C         140.0843  138.9147  157.8037 C.ar    1  UNL1        0.0197
     24 C         139.3460  140.0251  157.1166 C.ar    1  UNL1        0.0016
     25 C         138.3200  140.8208  157.8676 C.ar    1  UNL1        0.0002
     26 C         138.0322  140.5062  159.3057 C.ar    1  UNL1        0.0045
     27 C         138.7704  139.3959  159.9928 C.ar    1  UNL1        0.0534
     28 C         139.7965  138.6001  159.2418 C.ar    1  UNL1        0.0061
     29 C         138.4826  139.0813  161.4309 C.2     1  UNL1        0.2461
     30 O         137.6115  139.9966  162.2391 O.2     1  UNL1       -0.2701
     31 N         139.0660  137.8513  162.0609 N.am    1  UNL1       -0.2969
     32 H         139.6378  137.2505  161.5305 H       1  UNL1        0.1501
     33 C         138.7782  137.5367  163.4990 C.3     1  UNL1        0.1166
     34 C         139.5142  138.2610  164.5870 C.ar    1  UNL1       -0.0026
     35 C         141.0140  138.2487  164.6147 C.ar    1  UNL1       -0.0029
     36 C         141.7499  138.9730  165.7027 C.ar    1  UNL1       -0.0046
     37 C         140.9862  139.7095  166.7630 C.ar    1  UNL1       -0.0228
     38 C         139.4866  139.7218  166.7353 C.ar    1  UNL1       -0.0046
     39 C         138.7505  138.9975  165.6473 C.ar    1  UNL1       -0.0029
     40 C         141.7222  140.4338  167.8510 C.3     1  UNL1        0.0189
     41 C         140.7081  141.5380  167.8018 C.3     1  UNL1        0.0044
     42 C         142.7362  139.3296  167.9002 C.3     1  UNL1        0.0044
     43 C         142.4582  141.1581  168.9390 C.3     1  UNL1        0.0044
@<TRIPOS>BOND
     1    21    22    2
     2    22    13    1
     3    13    14    2
     4    13    15   am
     5    15    16    1
     6    16    17    1
     7    17    18    1
     8    18    19    1
     9    19     1    1
    10     1     2   ar
    11     2     3   ar
    12     3    23    1
    13    23    24   ar
    14    24    25   ar
    15    25    26   ar
    16    26    27   ar
    17    27    29    1
    18    29    30    2
    19    29    31   am
    20    31    33    1
    21    33    34    1
    22    34    35   ar
    23    35    36   ar
    24    36    37   ar
    25    37    40    1
    26    40    41    1
    27    40    42    1
    28    40    43    1
    29    37    38   ar
    30    38    39   ar
    31    27    28   ar
    32     3     4   ar
    33     4     5   ar
    34     5     6    1
    35     5     7   ar
    36     7     8   ar
    37     8     9   ar
    38     9    10   ar
    39    19    20    1
    40    20    15    1
    41    10     1   ar
    42    28    23   ar
    43    10     4   ar
    44    39    34   ar
    45    31    32    1
    46     6    11    1
    47     6    12    1
@<TRIPOS>MOLECULE
*****
 43 47 0 0 0
SMALL
GASTEIGER

@<TRIPOS>ATOM
      1 N         139.5091  139.5222  155.4172 N.ar    1  UNL1       -0.2342
      2 N         140.2686  140.7446  155.8405 N.ar    1  UNL1       -0.1679
      3 C         139.2842  141.8614  156.0238 C.ar    1  UNL1        0.1065
      4 C         137.9164  141.3294  155.7139 C.ar    1  UNL1        0.0860
      5 C         136.5623  141.9745  155.7247 C.ar    1  UNL1        0.1316
      6 N         136.4233  143.4202  156.0995 N.pl3   1  UNL1       -0.3425
      7 N         135.3472  141.1739  155.3605 N.ar    1  UNL1       -0.2093
      8 C         135.4863  139.7282  154.9856 C.ar    1  UNL1        0.2014
      9 N         136.8404  139.0831  154.9749 N.ar    1  UNL1       -0.2050
     10 C         138.0554  139.8836  155.3390 C.ar    1  UNL1        0.1653
     11 H         137.2208  143.9457  156.3385 H       1  UNL1        0.1437
     12 H         135.5345  143.8437  156.1066 H       1  UNL1        0.1437
     13 C         142.6375  135.5931  156.7498 C.2     1  UNL1        0.2492
     14 O         143.0205  136.3231  158.0030 O.2     1  UNL1       -0.2699
     15 N         141.6639  136.2104  155.7901 N.am    1  UNL1       -0.2741
     16 C         141.2809  135.4804  154.5369 C.3     1  UNL1        0.0938
     17 C         140.3074  136.0978  153.5772 C.3     1  UNL1        0.0236
     18 C         139.7168  137.4450  153.8706 C.3     1  UNL1        0.0279
     19 C         140.0997  138.1750  155.1238 C.3     1  UNL1        0.1266
     20 C         141.0734  137.5576  156.0835 C.3     1  UNL1        0.1180
     21 C         143.9552  133.4952  157.5324 C.2     1  UNL1        0.0048
     22 C         143.2281  134.2459  156.4563 C.2     1  UNL1        0.0579
     23 C         139.6103  143.2642  156.4434 C.ar    1  UNL1        0.0197
     24 C         139.6054  144.3704  155.4302 C.ar    1  UNL1        0.0016
     25 C         139.9315  145.7731  155.8498 C.ar    1  UNL1        0.0002
     26 C         140.2626  146.0696  157.2825 C.ar    1  UNL1        0.0045
     27 C         140.2675  144.9635  158.2955 C.ar    1  UNL1        0.0534
     28 C         139.9414  143.5607  157.8759 C.ar    1  UNL1        0.0061
     29 C         140.5986  145.2600  159.7282 C.2     1  UNL1        0.2461
     30 O         141.9495  144.9049  160.2748 O.2     1  UNL1       -0.2701
     31 N         139.5787  145.9116  160.6142 N.am    1  UNL1       -0.2969
     32 H         138.6920  146.1447  160.2555 H       1  UNL1        0.1501
     33 C         139.9097  146.2082  162.0469 C.3     1  UNL1        0.1166
     34 C         139.8748  145.1096  163.0676 C.ar    1  UNL1       -0.0026
     35 C         141.1314  144.7101  163.7829 C.ar    1  UNL1       -0.0029
     36 C         141.0964  143.6115  164.8037 C.ar    1  UNL1       -0.0046
     37 C         139.8049  142.9124  165.1091 C.ar    1  UNL1       -0.0228
     38 C         138.5484  143.3119  164.3939 C.ar    1  UNL1       -0.0046
     39 C         138.5833  144.4105  163.3731 C.ar    1  UNL1       -0.0029
     40 C         139.7699  141.8138  166.1299 C.3     1  UNL1        0.0189
     41 C         138.8750  141.0099  165.2338 C.3     1  UNL1        0.0044
     42 C         140.6649  142.6178  167.0258 C.3     1  UNL1        0.0044
     43 C         139.7350  140.7152  167.1506 C.3     1  UNL1        0.0044
@<TRIPOS>BOND
     1    21    22    2
     2    22    13    1
     3    13    14    2
     4    13    15   am
     5    15    16    1
     6    16    17    1
     7    17    18    1
     8    18    19    1
     9    19     1    1
    10     1     2   ar
    11     2     3   ar
    12     3    23    1
    13    23    24   ar
    14    24    25   ar
    15    25    26   ar
    16    26    27   ar
    17    27    29    1
    18    29    30    2
    19    29    31   am
    20    31    33    1
    21    33    34    1
    22    34    35   ar
    23    35    36   ar
    24    36    37   ar
    25    37    40    1
    26    40    41    1
    27    40    42    1
    28    40    43    1
    29    37    38   ar
    30    38    39   ar
    31    27    28   ar
    32     3     4   ar
    33     4     5   ar
    34     5     6    1
    35     5     7   ar
    36     7     8   ar
    37     8     9   ar
    38     9    10   ar
    39    19    20    1
    40    20    15    1
    41    10     1   ar
    42    28    23   ar
    43    10     4   ar
    44    39    34   ar
    45    31    32    1
    46     6    11    1
    47     6    12    1
@<TRIPOS>MOLECULE
*****
 43 47 0 0 0
SMALL
GASTEIGER

@<TRIPOS>ATOM
      1 N         142.6372  136.7213  156.9309 N.ar    1  UNL1       -0.2342
      2 N         141.8134  137.3607  158.0090 N.ar    1  UNL1       -0.1679
      3 C         142.1614  138.8191  158.0548 C.ar    1  UNL1        0.1065
      4 C         143.2004  139.0809  157.0050 C.ar    1  UNL1        0.0860
      5 C         143.9166  140.3324  156.5919 C.ar    1  UNL1        0.1316
      6 N         143.6225  141.6289  157.2865 N.pl3   1  UNL1       -0.3425
      7 N         144.9269  140.2874  155.4841 N.ar    1  UNL1       -0.2093
      8 C         145.2210  138.9908  154.7895 C.ar    1  UNL1        0.2014
      9 N         144.5047  137.7393  155.2026 N.ar    1  UNL1       -0.2050
     10 C         143.4944  137.7844  156.3104 C.ar    1  UNL1        0.1653
     11 H         142.9594  141.6585  158.0136 H       1  UNL1        0.1437
     12 H         144.0926  142.4503  157.0154 H       1  UNL1        0.1437
     13 C         144.5927  131.9217  157.3058 C.2     1  UNL1        0.2492
     14 O         145.6270  132.4186  158.2718 O.2     1  UNL1       -0.2699
     15 N         143.5866  132.8731  156.7290 N.am    1  UNL1       -0.2741
     16 C         142.5522  132.3762  155.7630 C.3     1  UNL1        0.0938
     17 C         141.5462  133.3277  155.1863 C.3     1  UNL1        0.0236
     18 C         141.5746  134.7760  155.5756 C.3     1  UNL1        0.0279
     19 C         142.6089  135.2729  156.5416 C.3     1  UNL1        0.1266
     20 C         143.6150  134.3214  157.1183 C.3     1  UNL1        0.1180
     21 C         143.8698  129.4744  157.7938 C.2     1  UNL1        0.0048
     22 C         144.5643  130.4734  156.9165 C.2     1  UNL1        0.0579
     23 C         141.5737  139.8369  158.9868 C.ar    1  UNL1        0.0197
     24 C         140.3349  140.5863  158.5943 C.ar    1  UNL1        0.0016
     25 C         139.7471  141.6041  159.5263 C.ar    1  UNL1        0.0002
     26 C         140.3982  141.8727  160.8507 C.ar    1  UNL1        0.0045
     27 C         141.6370  141.1234  161.2431 C.ar    1  UNL1        0.0534
     28 C         142.2247  140.1055  160.3111 C.ar    1  UNL1        0.0061
     29 C         142.2880  141.3919  162.5675 C.2     1  UNL1        0.2461
     30 O         142.5488  140.2613  163.5180 O.2     1  UNL1       -0.2701
     31 N         142.6783  142.7912  162.9413 N.am    1  UNL1       -0.2969
     32 H         142.5071  143.5333  162.3175 H       1  UNL1        0.1501
     33 C         143.3293  143.0598  164.2657 C.3     1  UNL1        0.1166
     34 C         142.5541  142.8673  165.5353 C.ar    1  UNL1       -0.0026
     35 C         143.2592  142.4336  166.7863 C.ar    1  UNL1       -0.0029
     36 C         142.4840  142.2411  168.0559 C.ar    1  UNL1       -0.0046
     37 C         141.0036  142.4822  168.0746 C.ar    1  UNL1       -0.0228
     38 C         140.2985  142.9159  166.8237 C.ar    1  UNL1       -0.0046
     39 C         141.0737  143.1084  165.5540 C.ar    1  UNL1       -0.0029
     40 C         140.2283  142.2897  169.3443 C.3     1  UNL1        0.0189
     41 C         140.5500  143.6965  169.7538 C.3     1  UNL1        0.0044
     42 C         139.9067  140.8831  168.9346 C.3     1  UNL1        0.0044
     43 C         139.4531  142.0972  170.6139 C.3     1  UNL1        0.0044
@<TRIPOS>BOND
     1    21    22    2
     2    22    13    1
     3    13    14    2
     4    13    15   am
     5    15    16    1
     6    16    17    1
     7    17    18    1
     8    18    19    1
     9    19     1    1
    10     1     2   ar
    11     2     3   ar
    12     3    23    1
    13    23    24   ar
    14    24    25   ar
    15    25    26   ar
    16    26    27   ar
    17    27    29    1
    18    29    30    2
    19    29    31   am
    20    31    33    1
    21    33    34    1
    22    34    35   ar
    23    35    36   ar
    24    36    37   ar
    25    37    40    1
    26    40    41    1
    27    40    42    1
    28    40    43    1
    29    37    38   ar
    30    38    39   ar
    31    27    28   ar
    32     3     4   ar
    33     4     5   ar
    34     5     6    1
    35     5     7   ar
    36     7     8   ar
    37     8     9   ar
    38     9    10   ar
    39    19    20    1
    40    20    15    1
    41    10     1   ar
    42    28    23   ar
    43    10     4   ar
    44    39    34   ar
    45    31    32    1
    46     6    11    1
    47     6    12    1
