@<TRIPOS>MOLECULE
*****
 35 39 0 0 0
SMALL
GASTEIGER

@<TRIPOS>ATOM
      1 C         139.1562  139.8567  167.7103 C.ar    1  UNL1       -0.0207
      2 C         138.2343  138.8682  167.0600 C.ar    1  UNL1       -0.0027
      3 C         138.2901  138.6543  165.5764 C.ar    1  UNL1        0.0188
      4 C         139.2679  139.4287  164.7432 C.ar    1  UNL1        0.0813
      5 N         139.3237  139.2147  163.2595 N.ar    1  UNL1       -0.2438
      6 C         140.3015  139.9892  162.4264 C.ar    1  UNL1        0.0994
      7 C         141.2234  140.9777  163.0768 C.ar    1  UNL1        0.0207
      8 C         141.1675  141.1916  164.5604 C.ar    1  UNL1        0.0031
      9 C         140.1898  140.4172  165.3936 C.ar    1  UNL1        0.0174
     10 C         140.1339  140.6312  166.8772 C.ar    1  UNL1       -0.0027
     11 C         140.3574  139.7752  160.9428 C.ar    1  UNL1        0.1059
     12 C         139.7263  140.6510  159.9012 C.ar    1  UNL1        0.0575
     13 S         140.0330  140.0649  158.5550 S.2     1  UNL1       -0.0658
     14 C         140.8537  138.8268  158.7645 C.ar    1  UNL1        0.1123
     15 N         141.0541  138.6478  160.2402 N.ar    1  UNL1       -0.2368
     16 C         141.3812  137.9260  157.6874 C.ar    1  UNL1        0.0432
     17 C         140.4405  137.3221  156.6872 C.ar    1  UNL1        0.0084
     18 C         140.9681  136.4212  155.6101 C.ar    1  UNL1        0.0578
     19 C         142.4363  136.1243  155.5331 C.ar    1  UNL1        0.2251
     20 N         143.3772  136.7282  156.5333 N.ar    1  UNL1       -0.2101
     21 C         142.8495  137.6290  157.6104 C.ar    1  UNL1        0.1040
     22 O         142.9639  135.2234  154.4560 O.3     1  UNL1       -0.4509
     23 C         142.3921  133.8477  154.2821 C.3     1  UNL1        0.3095
     24 C         142.3486  132.9011  155.4448 C.3     1  UNL1        0.4381
     25 F         142.3051  131.9545  156.6076 F       1  UNL1       -0.1663
     26 F         143.8467  132.9220  155.5180 F       1  UNL1       -0.1663
     27 F         140.8505  132.8802  155.3717 F       1  UNL1       -0.1663
     28 C         139.1003  140.0707  169.1940 C.3     1  UNL1        0.0437
     29 C         140.3429  139.9206  170.0207 C.3     1  UNL1        0.0768
     30 C         139.8731  143.0886  170.6471 C.3     1  UNL1        0.0173
     31 C         141.1786  142.4460  170.2830 C.3     1  UNL1        0.0576
     32 C         142.4975  143.1468  170.1428 C.3     1  UNL1        0.0174
     33 C         143.5285  142.1237  169.7682 C.3     1  UNL1        0.0187
     34 C         142.8468  140.7906  169.6769 C.3     1  UNL1        0.0721
     35 N         141.3946  140.9899  169.9950 N.3     1  UNL1       -0.2737
@<TRIPOS>BOND
     1    31    30    1
     2    31    32    1
     3    32    33    1
     4    33    34    1
     5    34    35    1
     6    35    29    1
     7    29    28    1
     8    28     1    1
     9     1     2   ar
    10     2     3   ar
    11     3     4   ar
    12     4     5   ar
    13     5     6   ar
    14     6    11    1
    15    11    12   ar
    16    12    13   ar
    17    13    14   ar
    18    14    16    1
    19    16    17   ar
    20    17    18   ar
    21    18    19   ar
    22    19    22    1
    23    22    23    1
    24    23    24    1
    25    24    25    1
    26    24    26    1
    27    24    27    1
    28    19    20   ar
    29    20    21   ar
    30    14    15   ar
    31     6     7   ar
    32     7     8   ar
    33     8     9   ar
    34     9    10   ar
    35    35    31    1
    36    10     1   ar
    37     9     4   ar
    38    15    11   ar
    39    21    16   ar
@<TRIPOS>MOLECULE
*****
 35 39 0 0 0
SMALL
GASTEIGER

@<TRIPOS>ATOM
      1 C         140.7281  146.0674  156.1702 C.ar    1  UNL1       -0.0207
      2 C         141.8779  145.1472  155.8858 C.ar    1  UNL1       -0.0027
      3 C         142.5031  144.3615  157.0001 C.ar    1  UNL1        0.0188
      4 C         141.9784  144.4961  158.3989 C.ar    1  UNL1        0.0813
      5 N         142.6037  143.7103  159.5133 N.ar    1  UNL1       -0.2438
      6 C         142.0791  143.8449  160.9121 C.ar    1  UNL1        0.0994
      7 C         140.9292  144.7653  161.1965 C.ar    1  UNL1        0.0207
      8 C         140.3040  145.5509  160.0822 C.ar    1  UNL1        0.0031
      9 C         140.8286  145.4163  158.6834 C.ar    1  UNL1        0.0174
     10 C         140.2034  146.2020  157.5690 C.ar    1  UNL1       -0.0027
     11 C         142.7043  143.0593  162.0264 C.ar    1  UNL1        0.1059
     12 C         143.8828  142.1394  161.9035 C.ar    1  UNL1        0.0575
     13 S         144.1676  141.5671  163.2605 S.2     1  UNL1       -0.0658
     14 C         143.1651  142.1333  164.2220 C.ar    1  UNL1        0.1123
     15 N         142.2607  143.0554  163.4593 N.ar    1  UNL1       -0.2368
     16 C         143.0816  141.8304  165.6888 C.ar    1  UNL1        0.0432
     17 C         142.4508  140.5522  166.1560 C.ar    1  UNL1        0.0084
     18 C         142.3674  140.2493  167.6227 C.ar    1  UNL1        0.0578
     19 C         142.9147  141.2246  168.6223 C.ar    1  UNL1        0.2251
     20 N         143.5456  142.5029  168.1551 N.ar    1  UNL1       -0.2101
     21 C         143.6290  142.8057  166.6884 C.ar    1  UNL1        0.1040
     22 O         142.8313  140.9218  170.0890 O.3     1  UNL1       -0.4509
     23 C         141.9524  141.7515  170.9774 C.3     1  UNL1        0.3095
     24 C         140.8622  142.5912  170.3808 C.3     1  UNL1        0.4381
     25 F         139.7718  143.4310  169.7842 F       1  UNL1       -0.1663
     26 F         141.7847  143.7738  170.3591 F       1  UNL1       -0.1663
     27 F         139.9395  141.4087  170.4024 F       1  UNL1       -0.1663
     28 C         140.1028  146.8532  155.0558 C.3     1  UNL1        0.0437
     29 C         138.8749  147.6749  155.3146 C.3     1  UNL1        0.0768
     30 C         138.0413  149.6261  157.7940 C.3     1  UNL1        0.0173
     31 C         138.5801  150.0692  156.4661 C.3     1  UNL1        0.0576
     32 C         138.8304  151.4868  156.0447 C.3     1  UNL1        0.0174
     33 C         139.3683  151.4661  154.6445 C.3     1  UNL1        0.0187
     34 C         139.4504  150.0356  154.2006 C.3     1  UNL1        0.0721
     35 N         138.9633  149.1723  155.3265 N.3     1  UNL1       -0.2737
@<TRIPOS>BOND
     1    31    30    1
     2    31    32    1
     3    32    33    1
     4    33    34    1
     5    34    35    1
     6    35    29    1
     7    29    28    1
     8    28     1    1
     9     1     2   ar
    10     2     3   ar
    11     3     4   ar
    12     4     5   ar
    13     5     6   ar
    14     6    11    1
    15    11    12   ar
    16    12    13   ar
    17    13    14   ar
    18    14    16    1
    19    16    17   ar
    20    17    18   ar
    21    18    19   ar
    22    19    22    1
    23    22    23    1
    24    23    24    1
    25    24    25    1
    26    24    26    1
    27    24    27    1
    28    19    20   ar
    29    20    21   ar
    30    14    15   ar
    31     6     7   ar
    32     7     8   ar
    33     8     9   ar
    34     9    10   ar
    35    35    31    1
    36    10     1   ar
    37     9     4   ar
    38    15    11   ar
    39    21    16   ar
@<TRIPOS>MOLECULE
*****
 35 39 0 0 0
SMALL
GASTEIGER

@<TRIPOS>ATOM
      1 C         142.7048  138.7542  165.3680 C.ar    1  UNL1       -0.0207
      2 C         141.6293  137.7689  165.0182 C.ar    1  UNL1       -0.0027
      3 C         141.4090  137.3755  163.5876 C.ar    1  UNL1        0.0188
      4 C         142.2642  137.9674  162.5068 C.ar    1  UNL1        0.0813
      5 N         142.0439  137.5740  161.0761 N.ar    1  UNL1       -0.2438
      6 C         142.8991  138.1659  159.9953 C.ar    1  UNL1        0.0994
      7 C         143.9747  139.1513  160.3452 C.ar    1  UNL1        0.0207
      8 C         144.1950  139.5447  161.7758 C.ar    1  UNL1        0.0031
      9 C         143.3397  138.9528  162.8566 C.ar    1  UNL1        0.0174
     10 C         143.5600  139.3462  164.2872 C.ar    1  UNL1       -0.0027
     11 C         142.6789  137.7725  158.5647 C.ar    1  UNL1        0.1059
     12 C         142.3073  138.6968  157.4433 C.ar    1  UNL1        0.0575
     13 S         142.1903  137.8813  156.1898 S.2     1  UNL1       -0.0658
     14 C         142.4896  136.4529  156.5366 C.ar    1  UNL1        0.1123
     15 N         142.7916  136.3857  158.0043 N.ar    1  UNL1       -0.2368
     16 C         142.4873  135.2951  155.5830 C.ar    1  UNL1        0.0432
     17 C         141.7312  135.3891  154.2909 C.ar    1  UNL1        0.0084
     18 C         141.7290  134.2312  153.3373 C.ar    1  UNL1        0.0578
     19 C         142.4828  132.9793  153.6757 C.ar    1  UNL1        0.2251
     20 N         143.2389  132.8853  154.9679 N.ar    1  UNL1       -0.2101
     21 C         143.2412  134.0432  155.9214 C.ar    1  UNL1        0.1040
     22 O         142.4805  131.8214  152.7221 O.3     1  UNL1       -0.4509
     23 C         141.6394  130.6135  153.0110 C.3     1  UNL1        0.3095
     24 C         140.4977  130.7088  153.9790 C.3     1  UNL1        0.4381
     25 F         139.3558  130.8040  154.9471 F       1  UNL1       -0.1663
     26 F         141.3569  130.1081  155.0518 F       1  UNL1       -0.1663
     27 F         139.6383  131.3095  152.9063 F       1  UNL1       -0.1663
     28 C         142.9251  139.1477  166.7987 C.3     1  UNL1        0.0437
     29 C         142.3709  140.4427  167.3143 C.3     1  UNL1        0.0768
     30 C         139.2023  139.7873  166.8904 C.3     1  UNL1        0.0173
     31 C         139.8645  140.1343  168.1907 C.3     1  UNL1        0.0576
     32 C         139.1866  140.2411  169.5245 C.3     1  UNL1        0.0174
     33 C         140.2241  140.6083  170.5438 C.3     1  UNL1        0.0187
     34 C         141.5433  140.7285  169.8398 C.3     1  UNL1        0.0721
     35 N         141.3209  140.4356  168.3856 N.3     1  UNL1       -0.2737
@<TRIPOS>BOND
     1    31    30    1
     2    31    32    1
     3    32    33    1
     4    33    34    1
     5    34    35    1
     6    35    29    1
     7    29    28    1
     8    28     1    1
     9     1     2   ar
    10     2     3   ar
    11     3     4   ar
    12     4     5   ar
    13     5     6   ar
    14     6    11    1
    15    11    12   ar
    16    12    13   ar
    17    13    14   ar
    18    14    16    1
    19    16    17   ar
    20    17    18   ar
    21    18    19   ar
    22    19    22    1
    23    22    23    1
    24    23    24    1
    25    24    25    1
    26    24    26    1
    27    24    27    1
    28    19    20   ar
    29    20    21   ar
    30    14    15   ar
    31     6     7   ar
    32     7     8   ar
    33     8     9   ar
    34     9    10   ar
    35    35    31    1
    36    10     1   ar
    37     9     4   ar
    38    15    11   ar
    39    21    16   ar
@<TRIPOS>MOLECULE
*****
 35 39 0 0 0
SMALL
GASTEIGER

@<TRIPOS>ATOM
      1 C         139.3166  137.6813  164.5495 C.ar    1  UNL1       -0.0207
      2 C         140.8071  137.5450  164.6490 C.ar    1  UNL1       -0.0027
      3 C         141.6581  137.7034  163.4240 C.ar    1  UNL1        0.0188
      4 C         141.0186  137.9981  162.0995 C.ar    1  UNL1        0.0813
      5 N         141.8697  138.1566  160.8745 N.ar    1  UNL1       -0.2438
      6 C         141.2303  138.4513  159.5500 C.ar    1  UNL1        0.0994
      7 C         139.7398  138.5877  159.4506 C.ar    1  UNL1        0.0207
      8 C         138.8888  138.4293  160.6756 C.ar    1  UNL1        0.0031
      9 C         139.5282  138.1345  162.0000 C.ar    1  UNL1        0.0174
     10 C         138.6772  137.9761  163.2250 C.ar    1  UNL1       -0.0027
     11 C         142.0813  138.6097  158.3250 C.ar    1  UNL1        0.1059
     12 C         142.0276  137.7501  157.0969 C.ar    1  UNL1        0.0575
     13 S         143.0486  138.2647  156.1259 S.2     1  UNL1       -0.0658
     14 C         143.7332  139.4424  156.7539 C.ar    1  UNL1        0.1123
     15 N         143.1354  139.6556  158.1130 N.ar    1  UNL1       -0.2368
     16 C         144.8242  140.2628  156.1320 C.ar    1  UNL1        0.0432
     17 C         145.5008  141.3384  156.9289 C.ar    1  UNL1        0.0084
     18 C         146.5918  142.1588  156.3069 C.ar    1  UNL1        0.0578
     19 C         147.0061  141.9035  154.8881 C.ar    1  UNL1        0.2251
     20 N         146.3295  140.8278  154.0911 N.ar    1  UNL1       -0.2101
     21 C         145.2385  140.0075  154.7131 C.ar    1  UNL1        0.1040
     22 O         148.0971  142.7239  154.2661 O.3     1  UNL1       -0.4509
     23 C         149.2934  142.0482  153.6643 C.3     1  UNL1        0.3095
     24 C         150.6615  142.3101  154.2206 C.3     1  UNL1        0.4381
     25 F         152.0297  142.5720  154.7769 F       1  UNL1       -0.1663
     26 F         150.7279  143.5964  153.4519 F       1  UNL1       -0.1663
     27 F         150.5952  141.0237  154.9893 F       1  UNL1       -0.1663
     28 C         138.4655  137.5229  165.7745 C.3     1  UNL1        0.0437
     29 C         138.0626  138.7297  166.5690 C.3     1  UNL1        0.0768
     30 C         138.3117  141.3113  164.5884 C.3     1  UNL1        0.0173
     31 C         139.1322  141.0618  165.8191 C.3     1  UNL1        0.0576
     32 C         140.2112  141.9552  166.3554 C.3     1  UNL1        0.0174
     33 C         140.7637  141.3206  167.5973 C.3     1  UNL1        0.0187
     34 C         140.0260  140.0351  167.8285 C.3     1  UNL1        0.0721
     35 N         139.0177  139.8752  166.7294 N.3     1  UNL1       -0.2737
@<TRIPOS>BOND
     1    31    30    1
     2    31    32    1
     3    32    33    1
     4    33    34    1
     5    34    35    1
     6    35    29    1
     7    29    28    1
     8    28     1    1
     9     1     2   ar
    10     2     3   ar
    11     3     4   ar
    12     4     5   ar
    13     5     6   ar
    14     6    11    1
    15    11    12   ar
    16    12    13   ar
    17    13    14   ar
    18    14    16    1
    19    16    17   ar
    20    17    18   ar
    21    18    19   ar
    22    19    22    1
    23    22    23    1
    24    23    24    1
    25    24    25    1
    26    24    26    1
    27    24    27    1
    28    19    20   ar
    29    20    21   ar
    30    14    15   ar
    31     6     7   ar
    32     7     8   ar
    33     8     9   ar
    34     9    10   ar
    35    35    31    1
    36    10     1   ar
    37     9     4   ar
    38    15    11   ar
    39    21    16   ar
@<TRIPOS>MOLECULE
*****
 35 39 0 0 0
SMALL
GASTEIGER

@<TRIPOS>ATOM
      1 C         139.5889  140.1726  167.4841 C.ar    1  UNL1       -0.0207
      2 C         140.4469  141.2687  166.9254 C.ar    1  UNL1       -0.0027
      3 C         140.8378  141.2510  165.4774 C.ar    1  UNL1        0.0188
      4 C         140.3707  140.1371  164.5880 C.ar    1  UNL1        0.0813
      5 N         140.7617  140.1193  163.1399 N.ar    1  UNL1       -0.2438
      6 C         140.2945  139.0054  162.2506 C.ar    1  UNL1        0.0994
      7 C         139.4364  137.9092  162.8093 C.ar    1  UNL1        0.0207
      8 C         139.0455  137.9270  164.2573 C.ar    1  UNL1        0.0031
      9 C         139.5127  139.0409  165.1467 C.ar    1  UNL1        0.0174
     10 C         139.1218  139.0587  166.5947 C.ar    1  UNL1       -0.0027
     11 C         140.6854  138.9876  160.8025 C.ar    1  UNL1        0.1059
     12 C         139.8384  138.4956  159.6666 C.ar    1  UNL1        0.0575
     13 S         140.6214  138.6627  158.3982 S.2     1  UNL1       -0.0658
     14 C         141.9525  139.2579  158.7503 C.ar    1  UNL1        0.1123
     15 N         141.9921  139.4588  160.2362 N.ar    1  UNL1       -0.2368
     16 C         143.0512  139.5935  157.7857 C.ar    1  UNL1        0.0432
     17 C         143.1388  138.8780  156.4703 C.ar    1  UNL1        0.0084
     18 C         144.2375  139.2135  155.5057 C.ar    1  UNL1        0.0578
     19 C         145.2486  140.2645  155.8565 C.ar    1  UNL1        0.2251
     20 N         145.1610  140.9800  157.1721 N.ar    1  UNL1       -0.2101
     21 C         144.0623  140.6444  158.1366 C.ar    1  UNL1        0.1040
     22 O         146.3472  140.6000  154.8920 O.3     1  UNL1       -0.4509
     23 C         147.0751  141.9063  155.0090 C.3     1  UNL1        0.3095
     24 C         148.5219  141.9259  155.4042 C.3     1  UNL1        0.4381
     25 F         149.9688  141.9456  155.7993 F       1  UNL1       -0.1663
     26 F         148.1379  142.3552  156.7892 F       1  UNL1       -0.1663
     27 F         148.9059  141.4966  154.0192 F       1  UNL1       -0.1663
     28 C         139.1979  140.1903  168.9322 C.3     1  UNL1        0.0437
     29 C         140.2503  140.0737  169.9946 C.3     1  UNL1        0.0768
     30 C         140.0198  143.2954  170.4608 C.3     1  UNL1        0.0173
     31 C         141.2879  142.5248  170.2415 C.3     1  UNL1        0.0576
     32 C         142.6726  143.0997  170.1981 C.3     1  UNL1        0.0174
     33 C         143.6345  141.9742  169.9569 C.3     1  UNL1        0.0187
     34 C         142.8441  140.7036  169.8514 C.3     1  UNL1        0.0721
     35 N         141.3939  141.0440  170.0273 N.3     1  UNL1       -0.2737
@<TRIPOS>BOND
     1    31    30    1
     2    31    32    1
     3    32    33    1
     4    33    34    1
     5    34    35    1
     6    35    29    1
     7    29    28    1
     8    28     1    1
     9     1     2   ar
    10     2     3   ar
    11     3     4   ar
    12     4     5   ar
    13     5     6   ar
    14     6    11    1
    15    11    12   ar
    16    12    13   ar
    17    13    14   ar
    18    14    16    1
    19    16    17   ar
    20    17    18   ar
    21    18    19   ar
    22    19    22    1
    23    22    23    1
    24    23    24    1
    25    24    25    1
    26    24    26    1
    27    24    27    1
    28    19    20   ar
    29    20    21   ar
    30    14    15   ar
    31     6     7   ar
    32     7     8   ar
    33     8     9   ar
    34     9    10   ar
    35    35    31    1
    36    10     1   ar
    37     9     4   ar
    38    15    11   ar
    39    21    16   ar
@<TRIPOS>MOLECULE
*****
 35 39 0 0 0
SMALL
GASTEIGER

@<TRIPOS>ATOM
      1 C         142.5905  138.7956  165.3631 C.ar    1  UNL1       -0.0207
      2 C         141.5444  137.7825  165.0034 C.ar    1  UNL1       -0.0027
      3 C         141.3510  137.3803  163.5713 C.ar    1  UNL1        0.0188
      4 C         142.2036  137.9912  162.4990 C.ar    1  UNL1        0.0813
      5 N         142.0101  137.5889  161.0669 N.ar    1  UNL1       -0.2438
      6 C         142.8627  138.1998  159.9946 C.ar    1  UNL1        0.0994
      7 C         143.9088  139.2129  160.3543 C.ar    1  UNL1        0.0207
      8 C         144.1022  139.6151  161.7864 C.ar    1  UNL1        0.0031
      9 C         143.2496  139.0042  162.8587 C.ar    1  UNL1        0.0174
     10 C         143.4431  139.4064  164.2907 C.ar    1  UNL1       -0.0027
     11 C         142.6692  137.7976  158.5625 C.ar    1  UNL1        0.1059
     12 C         142.3821  138.7234  157.4178 C.ar    1  UNL1        0.0575
     13 S         142.2644  137.8970  156.1715 S.2     1  UNL1       -0.0658
     14 C         142.4787  136.4604  156.5461 C.ar    1  UNL1        0.1123
     15 N         142.7290  136.3990  158.0238 N.ar    1  UNL1       -0.2368
     16 C         142.4482  135.2905  155.6077 C.ar    1  UNL1        0.0432
     17 C         141.6344  135.3593  154.3495 C.ar    1  UNL1        0.0084
     18 C         141.6039  134.1895  153.4111 C.ar    1  UNL1        0.0578
     19 C         142.3872  132.9509  153.7308 C.ar    1  UNL1        0.2251
     20 N         143.2011  132.8820  154.9890 N.ar    1  UNL1       -0.2101
     21 C         143.2315  134.0519  155.9274 C.ar    1  UNL1        0.1040
     22 O         142.3567  131.7811  152.7924 O.3     1  UNL1       -0.4509
     23 C         141.5976  130.5416  153.1633 C.3     1  UNL1        0.3095
     24 C         140.3886  130.6385  154.0457 C.3     1  UNL1        0.4381
     25 F         139.1795  130.7354  154.9281 F       1  UNL1       -0.1663
     26 F         139.5863  131.1577  152.8895 F       1  UNL1       -0.1663
     27 F         141.1909  130.1194  155.2019 F       1  UNL1       -0.1663
     28 C         142.7840  139.1978  166.7952 C.3     1  UNL1        0.0437
     29 C         142.1288  140.4408  167.3201 C.3     1  UNL1        0.0768
     30 C         142.8592  139.7626  170.4275 C.3     1  UNL1        0.0173
     31 C         141.4888  140.0401  169.8844 C.3     1  UNL1        0.0576
     32 C         140.2136  140.0547  170.6741 C.3     1  UNL1        0.0174
     33 C         139.0897  140.3754  169.7338 C.3     1  UNL1        0.0187
     34 C         139.6704  140.5591  168.3629 C.3     1  UNL1        0.0721
     35 N         141.1531  140.3519  168.4561 N.3     1  UNL1       -0.2737
@<TRIPOS>BOND
     1    31    30    1
     2    31    32    1
     3    32    33    1
     4    33    34    1
     5    34    35    1
     6    35    29    1
     7    29    28    1
     8    28     1    1
     9     1     2   ar
    10     2     3   ar
    11     3     4   ar
    12     4     5   ar
    13     5     6   ar
    14     6    11    1
    15    11    12   ar
    16    12    13   ar
    17    13    14   ar
    18    14    16    1
    19    16    17   ar
    20    17    18   ar
    21    18    19   ar
    22    19    22    1
    23    22    23    1
    24    23    24    1
    25    24    25    1
    26    24    26    1
    27    24    27    1
    28    19    20   ar
    29    20    21   ar
    30    14    15   ar
    31     6     7   ar
    32     7     8   ar
    33     8     9   ar
    34     9    10   ar
    35    35    31    1
    36    10     1   ar
    37     9     4   ar
    38    15    11   ar
    39    21    16   ar
@<TRIPOS>MOLECULE
*****
 35 39 0 0 0
SMALL
GASTEIGER

@<TRIPOS>ATOM
      1 C         142.7074  138.7963  165.4086 C.ar    1  UNL1       -0.0207
      2 C         141.6079  137.8282  165.0863 C.ar    1  UNL1       -0.0027
      3 C         141.3701  137.4093  163.6658 C.ar    1  UNL1        0.0188
      4 C         142.2317  137.9584  162.5676 C.ar    1  UNL1        0.0813
      5 N         141.9938  137.5394  161.1470 N.ar    1  UNL1       -0.2438
      6 C         142.8554  138.0885  160.0488 C.ar    1  UNL1        0.0994
      7 C         143.9550  139.0566  160.3712 C.ar    1  UNL1        0.0207
      8 C         144.1929  139.4756  161.7917 C.ar    1  UNL1        0.0031
      9 C         143.3312  138.9265  162.8899 C.ar    1  UNL1        0.0174
     10 C         143.5691  139.3454  164.3104 C.ar    1  UNL1       -0.0027
     11 C         142.6176  137.6696  158.6283 C.ar    1  UNL1        0.1059
     12 C         142.1390  138.5552  157.5162 C.ar    1  UNL1        0.0575
     13 S         142.0422  137.7245  156.2711 S.2     1  UNL1       -0.0658
     14 C         142.4609  136.3254  156.6136 C.ar    1  UNL1        0.1123
     15 N         142.8165  136.2915  158.0704 N.ar    1  UNL1       -0.2368
     16 C         142.5146  135.1641  155.6657 C.ar    1  UNL1        0.0432
     17 C         143.1565  133.8771  156.0919 C.ar    1  UNL1        0.0084
     18 C         143.2102  132.7158  155.1440 C.ar    1  UNL1        0.0578
     19 C         142.6220  132.8415  153.7699 C.ar    1  UNL1        0.2251
     20 N         141.9801  134.1285  153.3436 N.ar    1  UNL1       -0.2101
     21 C         141.9264  135.2897  154.2916 C.ar    1  UNL1        0.1040
     22 O         142.6757  131.6802  152.8219 O.3     1  UNL1       -0.4509
     23 C         141.5325  130.7112  152.7575 C.3     1  UNL1        0.3095
     24 C         140.4505  130.7577  153.7952 C.3     1  UNL1        0.4381
     25 F         139.3684  130.8043  154.8329 F       1  UNL1       -0.1663
     26 F         139.5937  131.5651  152.8657 F       1  UNL1       -0.1663
     27 F         141.3073  129.9503  154.7247 F       1  UNL1       -0.1663
     28 C         142.9453  139.2153  166.8291 C.3     1  UNL1        0.0437
     29 C         142.1269  140.3177  167.4330 C.3     1  UNL1        0.0768
     30 C         143.6171  142.7538  165.8538 C.3     1  UNL1        0.0173
     31 C         142.1484  142.4504  165.8217 C.3     1  UNL1        0.0576
     32 C         141.1069  143.2135  165.0582 C.3     1  UNL1        0.0174
     33 C         139.7782  142.5653  165.3122 C.3     1  UNL1        0.0187
     34 C         139.9986  141.4016  166.2327 C.3     1  UNL1        0.0721
     35 N         141.4635  141.3307  166.5476 N.3     1  UNL1       -0.2737
@<TRIPOS>BOND
     1    31    30    1
     2    31    32    1
     3    32    33    1
     4    33    34    1
     5    34    35    1
     6    35    29    1
     7    29    28    1
     8    28     1    1
     9     1     2   ar
    10     2     3   ar
    11     3     4   ar
    12     4     5   ar
    13     5     6   ar
    14     6    11    1
    15    11    12   ar
    16    12    13   ar
    17    13    14   ar
    18    14    16    1
    19    16    17   ar
    20    17    18   ar
    21    18    19   ar
    22    19    22    1
    23    22    23    1
    24    23    24    1
    25    24    25    1
    26    24    26    1
    27    24    27    1
    28    19    20   ar
    29    20    21   ar
    30    14    15   ar
    31     6     7   ar
    32     7     8   ar
    33     8     9   ar
    34     9    10   ar
    35    35    31    1
    36    10     1   ar
    37     9     4   ar
    38    15    11   ar
    39    21    16   ar
@<TRIPOS>MOLECULE
*****
 35 39 0 0 0
SMALL
GASTEIGER

@<TRIPOS>ATOM
      1 C         144.8914  141.2861  163.2958 C.ar    1  UNL1       -0.0207
      2 C         144.6128  139.8633  163.6803 C.ar    1  UNL1       -0.0027
      3 C         144.0671  138.9048  162.6637 C.ar    1  UNL1        0.0188
      4 C         143.8000  139.3691  161.2627 C.ar    1  UNL1        0.0813
      5 N         143.2543  138.4105  160.2461 N.ar    1  UNL1       -0.2438
      6 C         142.9871  138.8748  158.8450 C.ar    1  UNL1        0.0994
      7 C         143.2657  140.2978  158.4605 C.ar    1  UNL1        0.0207
      8 C         143.8114  141.2563  159.4770 C.ar    1  UNL1        0.0031
      9 C         144.0786  140.7919  160.8781 C.ar    1  UNL1        0.0174
     10 C         144.6243  141.7504  161.8947 C.ar    1  UNL1       -0.0027
     11 C         142.4414  137.9163  157.8284 C.ar    1  UNL1        0.1059
     12 C         141.2309  138.1359  156.9703 C.ar    1  UNL1        0.0575
     13 S         141.0517  136.9252  156.1030 S.2     1  UNL1       -0.0658
     14 C         142.1516  135.9574  156.4252 C.ar    1  UNL1        0.1123
     15 N         143.0104  136.5700  157.4916 N.ar    1  UNL1       -0.2368
     16 C         142.3566  134.6131  155.7921 C.ar    1  UNL1        0.0432
     17 C         142.0557  134.4161  154.3359 C.ar    1  UNL1        0.0084
     18 C         142.2607  133.0718  153.7028 C.ar    1  UNL1        0.0578
     19 C         142.7665  131.9244  154.5260 C.ar    1  UNL1        0.2251
     20 N         143.0674  132.1213  155.9823 N.ar    1  UNL1       -0.2101
     21 C         142.8624  133.4657  156.6153 C.ar    1  UNL1        0.1040
     22 O         142.9715  130.5800  153.8929 O.3     1  UNL1       -0.4509
     23 C         141.8074  129.6521  153.7095 C.3     1  UNL1        0.3095
     24 C         140.5232  129.9061  154.4417 C.3     1  UNL1        0.4381
     25 F         139.2389  130.1601  155.1740 F       1  UNL1       -0.1663
     26 F         141.0801  129.2232  155.6556 F       1  UNL1       -0.1663
     27 F         139.9662  130.5890  153.2279 F       1  UNL1       -0.1663
     28 C         145.4372  142.2447  164.3123 C.3     1  UNL1        0.0437
     29 C         144.5008  143.0140  165.1962 C.3     1  UNL1        0.0768
     30 C         141.4420  141.8769  165.1978 C.3     1  UNL1        0.0173
     31 C         141.8989  143.1772  164.6058 C.3     1  UNL1        0.0576
     32 C         141.0300  144.1831  163.9107 C.3     1  UNL1        0.0174
     33 C         141.8991  145.3276  163.4804 C.3     1  UNL1        0.0187
     34 C         143.3051  145.0289  163.9096 C.3     1  UNL1        0.0721
     35 N         143.3049  143.6999  164.6051 N.3     1  UNL1       -0.2737
@<TRIPOS>BOND
     1    31    30    1
     2    31    32    1
     3    32    33    1
     4    33    34    1
     5    34    35    1
     6    35    29    1
     7    29    28    1
     8    28     1    1
     9     1     2   ar
    10     2     3   ar
    11     3     4   ar
    12     4     5   ar
    13     5     6   ar
    14     6    11    1
    15    11    12   ar
    16    12    13   ar
    17    13    14   ar
    18    14    16    1
    19    16    17   ar
    20    17    18   ar
    21    18    19   ar
    22    19    22    1
    23    22    23    1
    24    23    24    1
    25    24    25    1
    26    24    26    1
    27    24    27    1
    28    19    20   ar
    29    20    21   ar
    30    14    15   ar
    31     6     7   ar
    32     7     8   ar
    33     8     9   ar
    34     9    10   ar
    35    35    31    1
    36    10     1   ar
    37     9     4   ar
    38    15    11   ar
    39    21    16   ar
@<TRIPOS>MOLECULE
*****
 35 39 0 0 0
SMALL
GASTEIGER

@<TRIPOS>ATOM
      1 C         139.3400  140.1901  167.7339 C.ar    1  UNL1       -0.0207
      2 C         138.6675  139.2024  166.8271 C.ar    1  UNL1       -0.0027
      3 C         138.7051  139.4022  165.3410 C.ar    1  UNL1        0.0188
      4 C         139.4151  140.5898  164.7616 C.ar    1  UNL1        0.0813
      5 N         139.4526  140.7896  163.2754 N.ar    1  UNL1       -0.2438
      6 C         140.1625  141.9771  162.6960 C.ar    1  UNL1        0.0994
      7 C         140.8350  142.9648  163.6028 C.ar    1  UNL1        0.0207
      8 C         140.7974  142.7650  165.0890 C.ar    1  UNL1        0.0031
      9 C         140.0875  141.5775  165.6683 C.ar    1  UNL1        0.0174
     10 C         140.0499  141.3777  167.1545 C.ar    1  UNL1       -0.0027
     11 C         140.2001  142.1769  161.2099 C.ar    1  UNL1        0.1059
     12 C         140.6165  141.1557  160.1932 C.ar    1  UNL1        0.0575
     13 S         140.5016  141.7806  158.8344 S.2     1  UNL1       -0.0658
     14 C         140.0142  143.1882  159.0114 C.ar    1  UNL1        0.1123
     15 N         139.8278  143.4331  160.4795 N.ar    1  UNL1       -0.2368
     16 C         139.7580  144.1772  157.9131 C.ar    1  UNL1        0.0432
     17 C         138.9146  143.7882  156.7352 C.ar    1  UNL1        0.0084
     18 C         138.6585  144.7773  155.6369 C.ar    1  UNL1        0.0578
     19 C         139.2458  146.1552  155.7164 C.ar    1  UNL1        0.2251
     20 N         140.0892  146.5442  156.8944 N.ar    1  UNL1       -0.2101
     21 C         140.3453  145.5552  157.9926 C.ar    1  UNL1        0.1040
     22 O         138.9896  147.1442  154.6181 O.3     1  UNL1       -0.4509
     23 C         139.8605  148.3581  154.4838 C.3     1  UNL1        0.3095
     24 C         139.3633  149.6934  154.9525 C.3     1  UNL1        0.4381
     25 F         138.8661  151.0287  155.4211 F       1  UNL1       -0.1663
     26 F         140.5714  150.3527  154.3559 F       1  UNL1       -0.1663
     27 F         138.1552  149.0341  155.5490 F       1  UNL1       -0.1663
     28 C         139.3024  139.9903  169.2201 C.3     1  UNL1        0.0437
     29 C         140.5820  139.8593  169.9917 C.3     1  UNL1        0.0768
     30 C         139.8986  142.9774  170.6698 C.3     1  UNL1        0.0173
     31 C         141.2502  142.4260  170.3249 C.3     1  UNL1        0.0576
     32 C         142.5250  143.2109  170.2311 C.3     1  UNL1        0.0174
     33 C         143.6271  142.2627  169.8615 C.3     1  UNL1        0.0187
     34 C         143.0333  140.8918  169.7268 C.3     1  UNL1        0.0721
     35 N         141.5644  140.9927  170.0132 N.3     1  UNL1       -0.2737
@<TRIPOS>BOND
     1    31    30    1
     2    31    32    1
     3    32    33    1
     4    33    34    1
     5    34    35    1
     6    35    29    1
     7    29    28    1
     8    28     1    1
     9     1     2   ar
    10     2     3   ar
    11     3     4   ar
    12     4     5   ar
    13     5     6   ar
    14     6    11    1
    15    11    12   ar
    16    12    13   ar
    17    13    14   ar
    18    14    16    1
    19    16    17   ar
    20    17    18   ar
    21    18    19   ar
    22    19    22    1
    23    22    23    1
    24    23    24    1
    25    24    25    1
    26    24    26    1
    27    24    27    1
    28    19    20   ar
    29    20    21   ar
    30    14    15   ar
    31     6     7   ar
    32     7     8   ar
    33     8     9   ar
    34     9    10   ar
    35    35    31    1
    36    10     1   ar
    37     9     4   ar
    38    15    11   ar
    39    21    16   ar
