@<TRIPOS>MOLECULE
*****
 35 38 0 0 0
SMALL
GASTEIGER

@<TRIPOS>ATOM
      1 C         138.0353  140.4023  162.2363 C.ar    1  UNL1        0.1757
      2 C         138.4816  139.9595  163.5982 C.ar    1  UNL1        0.0557
      3 C         138.6175  138.4973  163.9043 C.ar    1  UNL1        0.0680
      4 C         138.3071  137.4780  162.8485 C.ar    1  UNL1        0.0184
      5 C         137.8607  137.9208  161.4867 C.ar    1  UNL1        0.0341
      6 C         137.7249  139.3829  161.1805 C.ar    1  UNL1        0.1745
      7 F         137.2785  139.8257  159.8187 F       1  UNL1       -0.2009
      8 N         139.0638  138.0545  165.2661 N.pl3   1  UNL1       -0.2149
      9 H         139.1960  137.0971  165.4537 H       1  UNL1        0.1737
     10 S         139.3089  139.0704  166.3422 S.O2    1  UNL1        0.0736
     11 O         137.8805  138.9477  166.7834 O.2     1  UNL1       -0.1499
     12 O         140.7373  139.1931  165.9011 O.2     1  UNL1       -0.1499
     13 C         139.5539  140.0863  167.4183 C.ar    1  UNL1        0.1252
     14 C         139.0623  139.8350  168.8130 C.ar    1  UNL1        0.0210
     15 C         139.3074  140.8509  169.8890 C.ar    1  UNL1        0.0128
     16 C         140.0441  142.1181  169.5704 C.ar    1  UNL1        0.0578
     17 CL        140.2891  143.1340  170.6464 Cl      1  UNL1       -0.0822
     18 C         140.5357  142.3694  168.1758 C.ar    1  UNL1        0.0128
     19 C         140.2906  141.3535  167.0996 C.ar    1  UNL1        0.0210
     20 O         137.8994  141.8644  161.9302 O.3     1  UNL1       -0.4336
     21 C         138.4948  145.2480  165.8285 C.3     1  UNL1        0.0522
     22 C         139.0391  144.5575  164.6132 C.ar    1  UNL1        0.0626
     23 C         140.4252  144.8684  164.1316 C.ar    1  UNL1        0.0196
     24 C         140.9695  144.1779  162.9163 C.ar    1  UNL1        0.0641
     25 C         140.1276  143.1766  162.1825 C.ar    1  UNL1        0.1118
     26 C         138.7414  142.8657  162.6640 C.ar    1  UNL1        0.2339
     27 N         138.1972  143.5562  163.8793 N.ar    1  UNL1       -0.2156
     28 C         140.9274  142.6588  161.0240 C.2     1  UNL1        0.2596
     29 O         140.4711  141.6387  160.0233 O.2     1  UNL1       -0.2693
     30 N         142.2636  143.3401  161.0418 N.am    1  UNL1       -0.2244
     31 C         142.2897  144.2790  162.2113 C.2     1  UNL1        0.2552
     32 O         143.4348  145.1636  162.6065 O.2     1  UNL1       -0.2695
     33 C         143.3782  143.1209  160.0620 C.3     1  UNL1        0.0831
     34 C         144.6929  142.5726  160.5320 C.3     1  UNL1        0.0220
     35 C         143.1780  143.4500  158.6124 C.3     1  UNL1        0.0220
@<TRIPOS>BOND
     1    21    22    1
     2    22    23   ar
     3    23    24   ar
     4    24    25   ar
     5    25    26   ar
     6    26    20    1
     7    20     1    1
     8     1     2   ar
     9     2     3   ar
    10     3     8    1
    11     8    10    1
    12    10    11    2
    13    10    12    2
    14    10    13    1
    15    13    14   ar
    16    14    15   ar
    17    15    16   ar
    18    16    17    1
    19    16    18   ar
    20    18    19   ar
    21     3     4   ar
    22     4     5   ar
    23     5     6   ar
    24     6     7    1
    25    26    27   ar
    26    25    28    1
    27    28    29    2
    28    28    30   am
    29    30    33    1
    30    33    34    1
    31    33    35    1
    32    30    31   am
    33    31    32    2
    34    27    22   ar
    35    31    24    1
    36     6     1   ar
    37    19    13   ar
    38     8     9    1
@<TRIPOS>MOLECULE
*****
 35 38 0 0 0
SMALL
GASTEIGER

@<TRIPOS>ATOM
      1 C         143.4644  141.8009  160.5613 C.ar    1  UNL1        0.1757
      2 C         142.5069  140.7213  160.9708 C.ar    1  UNL1        0.0557
      3 C         142.2795  139.5407  160.0739 C.ar    1  UNL1        0.0680
      4 C         143.0096  139.4397  158.7675 C.ar    1  UNL1        0.0184
      5 C         143.9671  140.5192  158.3580 C.ar    1  UNL1        0.0341
      6 C         144.1945  141.6998  159.2548 C.ar    1  UNL1        0.1745
      7 F         145.1520  142.7794  158.8453 F       1  UNL1       -0.2009
      8 N         141.3220  138.4611  160.4834 N.pl3   1  UNL1       -0.2149
      9 H         141.1556  137.6976  159.8846 H       1  UNL1        0.1737
     10 S         140.6181  138.5448  161.8054 S.O2    1  UNL1        0.0736
     11 O         141.7281  137.7654  162.4459 O.2     1  UNL1       -0.1499
     12 O         139.5081  139.3243  161.1649 O.2     1  UNL1       -0.1499
     13 C         139.9142  138.6286  163.1273 C.ar    1  UNL1        0.1252
     14 C         139.5626  139.9669  163.7063 C.ar    1  UNL1        0.0210
     15 C         138.8586  140.0507  165.0282 C.ar    1  UNL1        0.0128
     16 C         138.5063  138.7961  165.7711 C.ar    1  UNL1        0.0578
     17 CL        137.8023  138.8799  167.0930 Cl      1  UNL1       -0.0822
     18 C         138.8578  137.4578  165.1921 C.ar    1  UNL1        0.0128
     19 C         139.5618  137.3740  163.8702 C.ar    1  UNL1        0.0210
     20 O         143.6918  142.9815  161.4582 O.3     1  UNL1       -0.4336
     21 C         139.7301  146.3310  161.7518 C.3     1  UNL1        0.0522
     22 C         140.5647  145.2488  162.3700 C.ar    1  UNL1        0.0626
     23 C         140.2532  144.7591  163.7531 C.ar    1  UNL1        0.0196
     24 C         141.0879  143.6769  164.3713 C.ar    1  UNL1        0.0641
     25 C         142.2341  143.0843  163.6064 C.ar    1  UNL1        0.1118
     26 C         142.5455  143.5740  162.2232 C.ar    1  UNL1        0.2339
     27 N         141.7109  144.6563  161.6050 N.ar    1  UNL1       -0.2156
     28 C         142.8755  142.0381  164.4689 C.2     1  UNL1        0.2596
     29 O         144.0589  141.1942  164.0984 O.2     1  UNL1       -0.2693
     30 N         142.1257  141.9841  165.7670 N.am    1  UNL1       -0.2244
     31 C         141.0209  142.9968  165.7067 C.2     1  UNL1        0.2552
     32 O         140.0242  143.2799  166.7913 O.2     1  UNL1       -0.2695
     33 C         142.4278  141.0765  166.9225 C.3     1  UNL1        0.0831
     34 C         142.8893  141.6528  168.2282 C.3     1  UNL1        0.0220
     35 C         142.2684  139.5926  166.7722 C.3     1  UNL1        0.0220
@<TRIPOS>BOND
     1    21    22    1
     2    22    23   ar
     3    23    24   ar
     4    24    25   ar
     5    25    26   ar
     6    26    20    1
     7    20     1    1
     8     1     2   ar
     9     2     3   ar
    10     3     8    1
    11     8    10    1
    12    10    11    2
    13    10    12    2
    14    10    13    1
    15    13    14   ar
    16    14    15   ar
    17    15    16   ar
    18    16    17    1
    19    16    18   ar
    20    18    19   ar
    21     3     4   ar
    22     4     5   ar
    23     5     6   ar
    24     6     7    1
    25    26    27   ar
    26    25    28    1
    27    28    29    2
    28    28    30   am
    29    30    33    1
    30    33    34    1
    31    33    35    1
    32    30    31   am
    33    31    32    2
    34    27    22   ar
    35    31    24    1
    36     6     1   ar
    37    19    13   ar
    38     8     9    1
@<TRIPOS>MOLECULE
*****
 35 38 0 0 0
SMALL
GASTEIGER

@<TRIPOS>ATOM
      1 C         142.7584  142.1569  163.6633 C.ar    1  UNL1        0.1757
      2 C         141.7622  142.9875  162.9098 C.ar    1  UNL1        0.0557
      3 C         141.9268  144.4769  162.8409 C.ar    1  UNL1        0.0680
      4 C         143.0876  145.1356  163.5254 C.ar    1  UNL1        0.0184
      5 C         144.0838  144.3051  164.2789 C.ar    1  UNL1        0.0341
      6 C         143.9192  142.8158  164.3478 C.ar    1  UNL1        0.1745
      7 F         144.9154  141.9852  165.1013 F       1  UNL1       -0.2009
      8 N         140.9306  145.3075  162.0874 N.pl3   1  UNL1       -0.2149
      9 H         140.5723  146.1315  162.4896 H       1  UNL1        0.1737
     10 S         140.4803  144.8824  160.7211 S.O2    1  UNL1        0.0736
     11 O         141.8525  145.1599  160.1825 O.2     1  UNL1       -0.1499
     12 O         139.1081  144.6049  161.2597 O.2     1  UNL1       -0.1499
     13 C         140.0300  144.4574  159.3549 C.ar    1  UNL1        0.1252
     14 C         139.2539  143.1853  159.1830 C.ar    1  UNL1        0.0210
     15 C         138.8036  142.7602  157.8168 C.ar    1  UNL1        0.0128
     16 C         139.1294  143.6072  156.6225 C.ar    1  UNL1        0.0578
     17 CL        138.6791  143.1822  155.2563 Cl      1  UNL1       -0.0822
     18 C         139.9054  144.8793  156.7943 C.ar    1  UNL1        0.0128
     19 C         140.3558  145.3044  158.1606 C.ar    1  UNL1        0.0210
     20 O         142.5938  140.6676  163.7323 O.3     1  UNL1       -0.4336
     21 C         138.2308  138.5340  161.8850 C.3     1  UNL1        0.0522
     22 C         139.0557  139.0063  163.0454 C.ar    1  UNL1        0.0626
     23 C         138.5239  138.8841  164.4426 C.ar    1  UNL1        0.0196
     24 C         139.3487  139.3564  165.6031 C.ar    1  UNL1        0.0641
     25 C         140.7053  139.9509  165.3663 C.ar    1  UNL1        0.1118
     26 C         141.2371  140.0731  163.9691 C.ar    1  UNL1        0.2339
     27 N         140.4123  139.6008  162.8087 N.ar    1  UNL1       -0.2156
     28 C         141.2854  140.3268  166.6975 C.2     1  UNL1        0.2596
     29 O         142.6279  140.9547  166.9286 O.2     1  UNL1       -0.2693
     30 N         140.2873  139.9646  167.7571 N.am    1  UNL1       -0.2244
     31 C         139.0903  139.3649  167.0807 C.2     1  UNL1        0.2552
     32 O         137.8523  138.8619  167.7622 O.2     1  UNL1       -0.2695
     33 C         140.4565  140.1668  169.2338 C.3     1  UNL1        0.0831
     34 C         141.5716  139.4771  169.9623 C.3     1  UNL1        0.0220
     35 C         139.5105  141.0586  169.9819 C.3     1  UNL1        0.0220
@<TRIPOS>BOND
     1    21    22    1
     2    22    23   ar
     3    23    24   ar
     4    24    25   ar
     5    25    26   ar
     6    26    20    1
     7    20     1    1
     8     1     2   ar
     9     2     3   ar
    10     3     8    1
    11     8    10    1
    12    10    11    2
    13    10    12    2
    14    10    13    1
    15    13    14   ar
    16    14    15   ar
    17    15    16   ar
    18    16    17    1
    19    16    18   ar
    20    18    19   ar
    21     3     4   ar
    22     4     5   ar
    23     5     6   ar
    24     6     7    1
    25    26    27   ar
    26    25    28    1
    27    28    29    2
    28    28    30   am
    29    30    33    1
    30    33    34    1
    31    33    35    1
    32    30    31   am
    33    31    32    2
    34    27    22   ar
    35    31    24    1
    36     6     1   ar
    37    19    13   ar
    38     8     9    1
@<TRIPOS>MOLECULE
*****
 35 38 0 0 0
SMALL
GASTEIGER

@<TRIPOS>ATOM
      1 C         140.3340  140.2191  166.4655 C.ar    1  UNL1        0.1757
      2 C         140.2733  139.3872  165.2189 C.ar    1  UNL1        0.0557
      3 C         139.1859  138.3678  165.0497 C.ar    1  UNL1        0.0680
      4 C         138.1593  138.1804  166.1272 C.ar    1  UNL1        0.0184
      5 C         138.2200  139.0124  167.3738 C.ar    1  UNL1        0.0341
      6 C         139.3073  140.0317  167.5430 C.ar    1  UNL1        0.1745
      7 F         139.3681  140.8637  168.7897 F       1  UNL1       -0.2009
      8 N         139.1251  137.5359  163.8030 N.pl3   1  UNL1       -0.2149
      9 H         138.7222  136.6380  163.8296 H       1  UNL1        0.1737
     10 S         139.6784  138.0720  162.5159 S.O2    1  UNL1        0.0736
     11 O         138.4928  138.9815  162.3851 O.2     1  UNL1       -0.1499
     12 O         140.8639  137.1624  162.6467 O.2     1  UNL1       -0.1499
     13 C         140.2316  138.6080  161.2289 C.ar    1  UNL1        0.1252
     14 C         139.4685  138.4249  159.9505 C.ar    1  UNL1        0.0210
     15 C         140.0218  138.9610  158.6634 C.ar    1  UNL1        0.0128
     16 C         141.3381  139.6801  158.6547 C.ar    1  UNL1        0.0578
     17 CL        141.8914  140.2161  157.3677 Cl      1  UNL1       -0.0822
     18 C         142.1012  139.8632  159.9330 C.ar    1  UNL1        0.0128
     19 C         141.5480  139.3272  161.2201 C.ar    1  UNL1        0.0210
     20 O         141.4213  141.2385  166.6347 O.3     1  UNL1       -0.4336
     21 C         145.8739  140.9366  163.9733 C.3     1  UNL1        0.0522
     22 C         144.4883  141.4896  164.1286 C.ar    1  UNL1        0.0626
     23 C         143.9432  142.4447  163.1084 C.ar    1  UNL1        0.0196
     24 C         142.5576  142.9977  163.2637 C.ar    1  UNL1        0.0641
     25 C         141.7169  142.5956  164.4391 C.ar    1  UNL1        0.1118
     26 C         142.2620  141.6406  165.4592 C.ar    1  UNL1        0.2339
     27 N         143.6476  141.0876  165.3040 N.ar    1  UNL1       -0.2156
     28 C         140.3971  143.2995  164.3274 C.2     1  UNL1        0.2596
     29 O         139.2531  143.1861  165.2910 O.2     1  UNL1       -0.2693
     30 N         140.4220  144.1366  163.0829 N.am    1  UNL1       -0.2244
     31 C         141.7572  143.9501  162.4255 C.2     1  UNL1        0.2552
     32 O         142.2123  144.6015  161.1533 O.2     1  UNL1       -0.2695
     33 C         139.3072  145.0073  162.5835 C.3     1  UNL1        0.0831
     34 C         139.6185  146.3040  161.8969 C.3     1  UNL1        0.0220
     35 C         137.8813  144.5812  162.7709 C.3     1  UNL1        0.0220
@<TRIPOS>BOND
     1    21    22    1
     2    22    23   ar
     3    23    24   ar
     4    24    25   ar
     5    25    26   ar
     6    26    20    1
     7    20     1    1
     8     1     2   ar
     9     2     3   ar
    10     3     8    1
    11     8    10    1
    12    10    11    2
    13    10    12    2
    14    10    13    1
    15    13    14   ar
    16    14    15   ar
    17    15    16   ar
    18    16    17    1
    19    16    18   ar
    20    18    19   ar
    21     3     4   ar
    22     4     5   ar
    23     5     6   ar
    24     6     7    1
    25    26    27   ar
    26    25    28    1
    27    28    29    2
    28    28    30   am
    29    30    33    1
    30    33    34    1
    31    33    35    1
    32    30    31   am
    33    31    32    2
    34    27    22   ar
    35    31    24    1
    36     6     1   ar
    37    19    13   ar
    38     8     9    1
@<TRIPOS>MOLECULE
*****
 35 38 0 0 0
SMALL
GASTEIGER

@<TRIPOS>ATOM
      1 C         141.1682  138.5787  160.2703 C.ar    1  UNL1        0.1757
      2 C         140.1335  139.6434  160.4843 C.ar    1  UNL1        0.0557
      3 C         139.6421  140.4558  159.3229 C.ar    1  UNL1        0.0680
      4 C         140.1854  140.2034  157.9478 C.ar    1  UNL1        0.0184
      5 C         141.2200  139.1387  157.7338 C.ar    1  UNL1        0.0341
      6 C         141.7114  138.3263  158.8951 C.ar    1  UNL1        0.1745
      7 F         142.7461  137.2615  158.6811 F       1  UNL1       -0.2009
      8 N         138.6075  141.5206  159.5369 N.pl3   1  UNL1       -0.2149
      9 H         137.9578  141.7256  158.8261 H       1  UNL1        0.1737
     10 S         138.5627  142.2730  160.8338 S.O2    1  UNL1        0.0736
     11 O         139.6669  143.1672  160.3532 O.2     1  UNL1       -0.1499
     12 O         137.4584  141.3788  161.3144 O.2     1  UNL1       -0.1499
     13 C         138.5178  143.0254  162.1306 C.ar    1  UNL1        0.1252
     14 C         137.5682  142.6010  163.2115 C.ar    1  UNL1        0.0210
     15 C         137.5233  143.3534  164.5084 C.ar    1  UNL1        0.0128
     16 C         138.4281  144.5302  164.7244 C.ar    1  UNL1        0.0578
     17 CL        138.3832  145.2825  166.0213 Cl      1  UNL1       -0.0822
     18 C         139.3777  144.9546  163.6436 C.ar    1  UNL1        0.0128
     19 C         139.4225  144.2022  162.3467 C.ar    1  UNL1        0.0210
     20 O         141.6596  137.7663  161.4316 O.3     1  UNL1       -0.4336
     21 C         138.5725  137.1724  165.5689 C.3     1  UNL1        0.0522
     22 C         139.7306  137.8506  164.8988 C.ar    1  UNL1        0.0626
     23 C         140.5032  138.9099  165.6274 C.ar    1  UNL1        0.0196
     24 C         141.6613  139.5881  164.9573 C.ar    1  UNL1        0.0641
     25 C         142.0468  139.2069  163.5588 C.ar    1  UNL1        0.1118
     26 C         141.2742  138.1476  162.8302 C.ar    1  UNL1        0.2339
     27 N         140.1161  137.4694  163.5003 N.ar    1  UNL1       -0.2156
     28 C         143.2260  140.0432  163.1587 C.2     1  UNL1        0.2596
     29 O         143.9370  139.9906  161.8390 O.2     1  UNL1       -0.2693
     30 N         143.5694  140.9412  164.3101 N.am    1  UNL1       -0.2244
     31 C         142.6023  140.6600  165.4217 C.2     1  UNL1        0.2552
     32 O         142.5802  141.3325  166.7623 O.2     1  UNL1       -0.2695
     33 C         144.6841  141.9444  164.3438 C.3     1  UNL1        0.0831
     34 C         144.4683  143.2842  164.9828 C.3     1  UNL1        0.0220
     35 C         146.0146  141.6077  163.7386 C.3     1  UNL1        0.0220
@<TRIPOS>BOND
     1    21    22    1
     2    22    23   ar
     3    23    24   ar
     4    24    25   ar
     5    25    26   ar
     6    26    20    1
     7    20     1    1
     8     1     2   ar
     9     2     3   ar
    10     3     8    1
    11     8    10    1
    12    10    11    2
    13    10    12    2
    14    10    13    1
    15    13    14   ar
    16    14    15   ar
    17    15    16   ar
    18    16    17    1
    19    16    18   ar
    20    18    19   ar
    21     3     4   ar
    22     4     5   ar
    23     5     6   ar
    24     6     7    1
    25    26    27   ar
    26    25    28    1
    27    28    29    2
    28    28    30   am
    29    30    33    1
    30    33    34    1
    31    33    35    1
    32    30    31   am
    33    31    32    2
    34    27    22   ar
    35    31    24    1
    36     6     1   ar
    37    19    13   ar
    38     8     9    1
@<TRIPOS>MOLECULE
*****
 35 38 0 0 0
SMALL
GASTEIGER

@<TRIPOS>ATOM
      1 C         140.9035  139.3199  161.3861 C.ar    1  UNL1        0.1757
      2 C         140.6463  139.1260  162.8511 C.ar    1  UNL1        0.0557
      3 C         139.4127  138.4045  163.3070 C.ar    1  UNL1        0.0680
      4 C         138.4363  137.8770  162.2978 C.ar    1  UNL1        0.0184
      5 C         138.6936  138.0709  160.8328 C.ar    1  UNL1        0.0341
      6 C         139.9271  138.7923  160.3769 C.ar    1  UNL1        0.1745
      7 F         140.1843  138.9862  158.9119 F       1  UNL1       -0.2009
      8 N         139.1555  138.2106  164.7720 N.pl3   1  UNL1       -0.2149
      9 H         138.7955  137.3548  165.0995 H       1  UNL1        0.1737
     10 S         139.4466  139.3207  165.7379 S.O2    1  UNL1        0.0736
     11 O         138.1201  139.9448  165.4207 O.2     1  UNL1       -0.1499
     12 O         140.7732  138.6966  166.0552 O.2     1  UNL1       -0.1499
     13 C         139.7379  140.4307  166.7038 C.ar    1  UNL1        0.1252
     14 C         140.1322  141.7850  166.1934 C.ar    1  UNL1        0.0210
     15 C         140.4234  142.8950  167.1593 C.ar    1  UNL1        0.0128
     16 C         140.3203  142.6508  168.6357 C.ar    1  UNL1        0.0578
     17 CL        140.6115  143.7608  169.6016 Cl      1  UNL1       -0.0822
     18 C         139.9261  141.2966  169.1462 C.ar    1  UNL1        0.0128
     19 C         139.6348  140.1865  168.1802 C.ar    1  UNL1        0.0210
     20 O         142.1371  140.0413  160.9303 O.3     1  UNL1       -0.4336
     21 C         146.1932  141.4785  163.8427 C.3     1  UNL1        0.0522
     22 C         144.8272  141.7580  163.2896 C.ar    1  UNL1        0.0626
     23 C         144.1233  143.0354  163.6396 C.ar    1  UNL1        0.0196
     24 C         142.7573  143.3149  163.0865 C.ar    1  UNL1        0.0641
     25 C         142.0952  142.3169  162.1834 C.ar    1  UNL1        0.1118
     26 C         142.7991  141.0394  161.8334 C.ar    1  UNL1        0.2339
     27 N         144.1651  140.7600  162.3865 N.ar    1  UNL1       -0.2156
     28 C         140.7540  142.8634  161.7928 C.2     1  UNL1        0.2596
     29 O         139.7551  142.1920  160.8976 O.2     1  UNL1       -0.2693
     30 N         140.5872  144.1992  162.4545 N.am    1  UNL1       -0.2244
     31 C         141.8253  144.4782  163.2541 C.2     1  UNL1        0.2552
     32 O         142.0856  145.7052  164.0767 O.2     1  UNL1       -0.2695
     33 C         139.3921  145.0981  162.3372 C.3     1  UNL1        0.0831
     34 C         139.5171  146.4264  161.6518 C.3     1  UNL1        0.0220
     35 C         138.0719  144.6686  162.9053 C.3     1  UNL1        0.0220
@<TRIPOS>BOND
     1    21    22    1
     2    22    23   ar
     3    23    24   ar
     4    24    25   ar
     5    25    26   ar
     6    26    20    1
     7    20     1    1
     8     1     2   ar
     9     2     3   ar
    10     3     8    1
    11     8    10    1
    12    10    11    2
    13    10    12    2
    14    10    13    1
    15    13    14   ar
    16    14    15   ar
    17    15    16   ar
    18    16    17    1
    19    16    18   ar
    20    18    19   ar
    21     3     4   ar
    22     4     5   ar
    23     5     6   ar
    24     6     7    1
    25    26    27   ar
    26    25    28    1
    27    28    29    2
    28    28    30   am
    29    30    33    1
    30    33    34    1
    31    33    35    1
    32    30    31   am
    33    31    32    2
    34    27    22   ar
    35    31    24    1
    36     6     1   ar
    37    19    13   ar
    38     8     9    1
@<TRIPOS>MOLECULE
*****
 35 38 0 0 0
SMALL
GASTEIGER

@<TRIPOS>ATOM
      1 C         142.6750  142.5392  164.1933 C.ar    1  UNL1        0.1757
      2 C         141.4892  142.9335  163.3634 C.ar    1  UNL1        0.0557
      3 C         141.3576  144.3422  162.8652 C.ar    1  UNL1        0.0680
      4 C         142.4116  145.3566  163.1968 C.ar    1  UNL1        0.0184
      5 C         143.5973  144.9624  164.0266 C.ar    1  UNL1        0.0341
      6 C         143.7290  143.5537  164.5249 C.ar    1  UNL1        0.1745
      7 F         144.9147  143.1595  165.3547 F       1  UNL1       -0.2009
      8 N         140.1719  144.7365  162.0353 N.pl3   1  UNL1       -0.2149
      9 H         139.6877  145.5705  162.2336 H       1  UNL1        0.1737
     10 S         139.7238  143.8601  160.9034 S.O2    1  UNL1        0.0736
     11 O         138.4443  143.5734  161.6317 O.2     1  UNL1       -0.1499
     12 O         141.0034  144.1467  160.1751 O.2     1  UNL1       -0.1499
     13 C         139.2759  142.9837  159.7715 C.ar    1  UNL1        0.1252
     14 C         139.5419  143.3951  158.3537 C.ar    1  UNL1        0.0210
     15 C         139.0939  142.5187  157.2219 C.ar    1  UNL1        0.0128
     16 C         138.3800  141.2308  157.5077 C.ar    1  UNL1        0.0578
     17 CL        137.9320  140.3544  156.3758 Cl      1  UNL1       -0.0822
     18 C         138.1140  140.8194  158.9253 C.ar    1  UNL1        0.0128
     19 C         138.5619  141.6958  160.0573 C.ar    1  UNL1        0.0210
     20 O         142.8067  141.1306  164.6915 O.3     1  UNL1       -0.4336
     21 C         139.0292  137.7566  163.5310 C.3     1  UNL1        0.0522
     22 C         139.6955  138.6730  164.5138 C.ar    1  UNL1        0.0626
     23 C         139.1395  138.8190  165.8993 C.ar    1  UNL1        0.0196
     24 C         139.8059  139.7355  166.8821 C.ar    1  UNL1        0.0641
     25 C         141.0282  140.5060  166.4796 C.ar    1  UNL1        0.1118
     26 C         141.5842  140.3600  165.0941 C.ar    1  UNL1        0.2339
     27 N         140.9179  139.4436  164.1113 N.ar    1  UNL1       -0.2156
     28 C         141.4665  141.3275  167.6556 C.2     1  UNL1        0.2596
     29 O         142.6487  142.2498  167.6953 O.2     1  UNL1       -0.2693
     30 N         140.5150  141.0647  168.7851 N.am    1  UNL1       -0.2244
     31 C         139.4887  140.0808  168.3071 C.2     1  UNL1        0.2552
     32 O         138.3458  139.5375  169.1124 O.2     1  UNL1       -0.2695
     33 C         140.5787  141.6781  170.1525 C.3     1  UNL1        0.0831
     34 C         141.2895  140.9629  171.2629 C.3     1  UNL1        0.0220
     35 C         139.9316  143.0067  170.4093 C.3     1  UNL1        0.0220
@<TRIPOS>BOND
     1    21    22    1
     2    22    23   ar
     3    23    24   ar
     4    24    25   ar
     5    25    26   ar
     6    26    20    1
     7    20     1    1
     8     1     2   ar
     9     2     3   ar
    10     3     8    1
    11     8    10    1
    12    10    11    2
    13    10    12    2
    14    10    13    1
    15    13    14   ar
    16    14    15   ar
    17    15    16   ar
    18    16    17    1
    19    16    18   ar
    20    18    19   ar
    21     3     4   ar
    22     4     5   ar
    23     5     6   ar
    24     6     7    1
    25    26    27   ar
    26    25    28    1
    27    28    29    2
    28    28    30   am
    29    30    33    1
    30    33    34    1
    31    33    35    1
    32    30    31   am
    33    31    32    2
    34    27    22   ar
    35    31    24    1
    36     6     1   ar
    37    19    13   ar
    38     8     9    1
@<TRIPOS>MOLECULE
*****
 35 38 0 0 0
SMALL
GASTEIGER

@<TRIPOS>ATOM
      1 C         142.7932  142.1585  163.8327 C.ar    1  UNL1        0.1757
      2 C         142.9834  140.9708  162.9365 C.ar    1  UNL1        0.0557
      3 C         144.3663  140.4810  162.6238 C.ar    1  UNL1        0.0680
      4 C         145.5590  141.1789  163.2072 C.ar    1  UNL1        0.0184
      5 C         145.3688  142.3666  164.1034 C.ar    1  UNL1        0.0341
      6 C         143.9860  142.8564  164.4162 C.ar    1  UNL1        0.1745
      7 F         143.7958  144.0441  165.3124 F       1  UNL1       -0.2009
      8 N         144.5565  139.2933  161.7276 N.pl3   1  UNL1       -0.2149
      9 H         145.3602  138.7319  161.8181 H       1  UNL1        0.1737
     10 S         143.5220  138.9608  160.6934 S.O2    1  UNL1        0.0736
     11 O         143.0293  137.8317  161.5491 O.2     1  UNL1       -0.1499
     12 O         144.0147  140.0898  159.8376 O.2     1  UNL1       -0.1499
     13 C         142.4876  138.6284  159.6592 C.ar    1  UNL1        0.1252
     14 C         141.0357  138.8754  159.9442 C.ar    1  UNL1        0.0210
     15 C         140.0013  138.5430  158.9100 C.ar    1  UNL1        0.0128
     16 C         140.4187  137.9635  157.5909 C.ar    1  UNL1        0.0578
     17 CL        139.3844  137.6311  156.5568 Cl      1  UNL1       -0.0822
     18 C         141.8705  137.7165  157.3060 C.ar    1  UNL1        0.0128
     19 C         142.9050  138.0489  158.3401 C.ar    1  UNL1        0.0210
     20 O         141.4104  142.6483  164.1455 O.3     1  UNL1       -0.4336
     21 C         137.5406  140.0441  161.8557 C.3     1  UNL1        0.0522
     22 C         138.3363  140.3739  163.0837 C.ar    1  UNL1        0.0626
     23 C         137.9930  139.7313  164.3949 C.ar    1  UNL1        0.0196
     24 C         138.7887  140.0610  165.6229 C.ar    1  UNL1        0.0641
     25 C         139.9278  141.0333  165.5398 C.ar    1  UNL1        0.1118
     26 C         140.2712  141.6759  164.2286 C.ar    1  UNL1        0.2339
     27 N         139.4755  141.3462  163.0006 N.ar    1  UNL1       -0.2156
     28 C         140.5282  141.1620  166.9084 C.2     1  UNL1        0.2596
     29 O         141.6923  142.0309  167.2823 O.2     1  UNL1       -0.2693
     30 N         139.7601  140.2692  167.8373 N.am    1  UNL1       -0.2244
     31 C         138.6850  139.5887  167.0429 C.2     1  UNL1        0.2552
     32 O         137.6823  138.6082  167.5749 O.2     1  UNL1       -0.2695
     33 C         140.0213  140.0885  169.3034 C.3     1  UNL1        0.0831
     34 C         138.9397  140.3836  170.2998 C.3     1  UNL1        0.0220
     35 C         141.3642  139.6128  169.7729 C.3     1  UNL1        0.0220
@<TRIPOS>BOND
     1    21    22    1
     2    22    23   ar
     3    23    24   ar
     4    24    25   ar
     5    25    26   ar
     6    26    20    1
     7    20     1    1
     8     1     2   ar
     9     2     3   ar
    10     3     8    1
    11     8    10    1
    12    10    11    2
    13    10    12    2
    14    10    13    1
    15    13    14   ar
    16    14    15   ar
    17    15    16   ar
    18    16    17    1
    19    16    18   ar
    20    18    19   ar
    21     3     4   ar
    22     4     5   ar
    23     5     6   ar
    24     6     7    1
    25    26    27   ar
    26    25    28    1
    27    28    29    2
    28    28    30   am
    29    30    33    1
    30    33    34    1
    31    33    35    1
    32    30    31   am
    33    31    32    2
    34    27    22   ar
    35    31    24    1
    36     6     1   ar
    37    19    13   ar
    38     8     9    1
@<TRIPOS>MOLECULE
*****
 35 38 0 0 0
SMALL
GASTEIGER

@<TRIPOS>ATOM
      1 C         138.9425  140.6168  159.4398 C.ar    1  UNL1        0.1757
      2 C         140.2605  140.1355  159.9703 C.ar    1  UNL1        0.0557
      3 C         141.1863  139.3561  159.0839 C.ar    1  UNL1        0.0680
      4 C         140.7941  139.0580  157.6672 C.ar    1  UNL1        0.0184
      5 C         139.4762  139.5393  157.1367 C.ar    1  UNL1        0.0341
      6 C         138.5504  140.3186  158.0229 C.ar    1  UNL1        0.1745
      7 F         137.2325  140.7999  157.4924 F       1  UNL1       -0.2009
      8 N         142.5042  138.8748  159.6145 N.pl3   1  UNL1       -0.2149
      9 H         143.2204  138.6147  158.9911 H       1  UNL1        0.1737
     10 S         142.7309  138.7899  161.0948 S.O2    1  UNL1        0.0736
     11 O         143.5478  140.0468  161.0419 O.2     1  UNL1       -0.1499
     12 O         141.9140  137.5330  161.1478 O.2     1  UNL1       -0.1499
     13 C         142.9575  138.7049  162.5751 C.ar    1  UNL1        0.1252
     14 C         141.9580  138.0055  163.4480 C.ar    1  UNL1        0.0210
     15 C         142.1846  137.9205  164.9283 C.ar    1  UNL1        0.0128
     16 C         143.4108  138.5349  165.5359 C.ar    1  UNL1        0.0578
     17 CL        143.6374  138.4500  167.0162 Cl      1  UNL1       -0.0822
     18 C         144.4103  139.2343  164.6631 C.ar    1  UNL1        0.0128
     19 C         144.1837  139.3193  163.1827 C.ar    1  UNL1        0.0210
     20 O         138.0168  141.3961  160.3260 O.3     1  UNL1       -0.4336
     21 C         140.0155  145.7338  162.3729 C.3     1  UNL1        0.0522
     22 C         139.5609  144.3131  162.5300 C.ar    1  UNL1        0.0626
     23 C         139.6510  143.6403  163.8676 C.ar    1  UNL1        0.0196
     24 C         139.1964  142.2196  164.0248 C.ar    1  UNL1        0.0641
     25 C         138.6516  141.4715  162.8443 C.ar    1  UNL1        0.1118
     26 C         138.5615  142.1442  161.5066 C.ar    1  UNL1        0.2339
     27 N         139.0161  143.5650  161.3495 N.ar    1  UNL1       -0.2156
     28 C         138.2832  140.0908  163.3003 C.2     1  UNL1        0.2596
     29 O         137.7001  139.0059  162.4442 O.2     1  UNL1       -0.2693
     30 N         138.6002  139.9856  164.7626 N.am    1  UNL1       -0.2244
     31 C         139.1646  141.3012  165.2104 C.2     1  UNL1        0.2552
     32 O         139.6176  141.6392  166.5998 O.2     1  UNL1       -0.2695
     33 C         138.3897  138.7768  165.6256 C.3     1  UNL1        0.0831
     34 C         138.7865  137.4196  165.1251 C.3     1  UNL1        0.0220
     35 C         137.7825  138.9254  166.9892 C.3     1  UNL1        0.0220
@<TRIPOS>BOND
     1    21    22    1
     2    22    23   ar
     3    23    24   ar
     4    24    25   ar
     5    25    26   ar
     6    26    20    1
     7    20     1    1
     8     1     2   ar
     9     2     3   ar
    10     3     8    1
    11     8    10    1
    12    10    11    2
    13    10    12    2
    14    10    13    1
    15    13    14   ar
    16    14    15   ar
    17    15    16   ar
    18    16    17    1
    19    16    18   ar
    20    18    19   ar
    21     3     4   ar
    22     4     5   ar
    23     5     6   ar
    24     6     7    1
    25    26    27   ar
    26    25    28    1
    27    28    29    2
    28    28    30   am
    29    30    33    1
    30    33    34    1
    31    33    35    1
    32    30    31   am
    33    31    32    2
    34    27    22   ar
    35    31    24    1
    36     6     1   ar
    37    19    13   ar
    38     8     9    1
