@<TRIPOS>MOLECULE
*****
 34 39 0 0 0
SMALL
GASTEIGER

@<TRIPOS>ATOM
      1 O         142.5634  139.0561  165.5903 O.2     1  UNL1       -0.2526
      2 C         141.4839  139.1267  164.5513 C.2     1  UNL1        0.3039
      3 N         140.0756  139.4505  164.9537 N.am    1  UNL1       -0.2901
      4 N         141.8125  138.8736  163.1097 N.am    1  UNL1       -0.2642
      5 C         143.2207  138.5498  162.7073 C.3     1  UNL1        0.0954
      6 C         143.5495  138.2967  161.2658 C.3     1  UNL1        0.0309
      7 C         142.4699  138.3673  160.2268 C.3     1  UNL1        0.0827
      8 C         141.0616  138.6910  160.6293 C.3     1  UNL1        0.0309
      9 C         140.7329  138.9442  162.0707 C.3     1  UNL1        0.0954
     10 H         139.3670  139.4968  164.2718 H       1  UNL1        0.1509
     11 C         142.7986  138.1141  158.7853 C.ar    1  UNL1        0.2362
     12 N         142.2104  137.0370  157.9228 N.ar    1  UNL1       -0.1895
     13 C         142.8215  137.1508  156.5577 C.ar    1  UNL1        0.2210
     14 N         143.7874  138.2982  156.5765 N.ar    1  UNL1       -0.0544
     15 O         143.7733  138.8936  157.9532 O.2     1  UNL1       -0.3370
     16 C         142.5196  136.2716  155.3805 C.ar    1  UNL1        0.1202
     17 N         141.7943  136.8312  154.1928 N.ar    1  UNL1       -0.2406
     18 C         141.4925  135.9520  153.0156 C.ar    1  UNL1        0.0989
     19 C         141.9159  134.5130  153.0261 C.ar    1  UNL1        0.0207
     20 C         142.6413  133.9533  154.2139 C.ar    1  UNL1        0.0031
     21 C         143.0647  132.5144  154.2243 C.ar    1  UNL1        0.0001
     22 C         143.7900  131.9547  155.4120 C.ar    1  UNL1        0.0000
     23 C         144.0919  132.8340  156.5892 C.ar    1  UNL1        0.0000
     24 C         143.6684  134.2729  156.5787 C.ar    1  UNL1        0.0016
     25 C         142.9431  134.8326  155.3911 C.ar    1  UNL1        0.0208
     26 C         139.7469  139.7036  166.3952 C.3     1  UNL1        0.0774
     27 C         138.8433  139.5046  167.5759 C.3     1  UNL1        0.0259
     28 C         140.0810  140.3411  167.7112 C.3     1  UNL1        0.0420
     29 C         140.9885  141.1921  168.5492 C.ar    1  UNL1       -0.0208
     30 C         140.4902  142.4892  169.1141 C.ar    1  UNL1       -0.0042
     31 C         141.3977  143.3402  169.9521 C.ar    1  UNL1       -0.0003
     32 C         142.8036  142.8941  170.2252 C.ar    1  UNL1       -0.0000
     33 C         143.3019  141.5970  169.6603 C.ar    1  UNL1       -0.0003
     34 C         142.3944  140.7460  168.8223 C.ar    1  UNL1       -0.0042
@<TRIPOS>BOND
     1     1     2    2
     2     2     3   am
     3     3    26    1
     4    26    27    1
     5    27    28    1
     6    28    29    1
     7    29    30   ar
     8    30    31   ar
     9    31    32   ar
    10    32    33   ar
    11    33    34   ar
    12     2     4   am
    13     4     5    1
    14     5     6    1
    15     6     7    1
    16     7    11    1
    17    11    12   ar
    18    12    13   ar
    19    13    16    1
    20    16    17   ar
    21    17    18   ar
    22    18    19   ar
    23    19    20   ar
    24    20    21   ar
    25    21    22   ar
    26    22    23   ar
    27    23    24   ar
    28    24    25   ar
    29    13    14   ar
    30    14    15   ar
    31     7     8    1
    32     8     9    1
    33    28    26    1
    34    34    29   ar
    35     9     4    1
    36    15    11   ar
    37    25    16   ar
    38    25    20   ar
    39     3    10    1
@<TRIPOS>MOLECULE
*****
 34 39 0 0 0
SMALL
GASTEIGER

@<TRIPOS>ATOM
      1 O         138.5740  140.6917  162.7978 O.2     1  UNL1       -0.2526
      2 C         140.0601  140.7208  162.5962 C.2     1  UNL1        0.3039
      3 N         140.9339  141.4623  163.5639 N.am    1  UNL1       -0.2901
      4 N         140.6724  140.0084  161.4267 N.am    1  UNL1       -0.2642
      5 C         139.7986  139.2669  160.4590 C.3     1  UNL1        0.0954
      6 C         140.4108  138.5545  159.2895 C.3     1  UNL1        0.0309
      7 C         141.8969  138.5836  159.0878 C.3     1  UNL1        0.0827
      8 C         142.7707  139.3251  160.0556 C.3     1  UNL1        0.0309
      9 C         142.1585  140.0375  161.2251 C.3     1  UNL1        0.0954
     10 H         141.9093  141.4814  163.4316 H       1  UNL1        0.1509
     11 C         142.5091  137.8712  157.9184 C.ar    1  UNL1        0.2362
     12 N         142.0518  136.5626  157.3453 N.ar    1  UNL1       -0.1895
     13 C         142.9462  136.2249  156.1894 C.ar    1  UNL1        0.2210
     14 N         143.9562  137.3248  156.0481 N.ar    1  UNL1       -0.0544
     15 O         143.6861  138.3423  157.1167 O.2     1  UNL1       -0.3370
     16 C         142.8477  135.0020  155.3263 C.ar    1  UNL1        0.1202
     17 N         142.1065  135.0611  154.0237 N.ar    1  UNL1       -0.2406
     18 C         142.0080  133.8382  153.1606 C.ar    1  UNL1        0.0989
     19 C         142.6509  132.5562  153.6002 C.ar    1  UNL1        0.0207
     20 C         143.3922  132.4971  154.9029 C.ar    1  UNL1        0.0031
     21 C         144.0350  131.2151  155.3426 C.ar    1  UNL1        0.0001
     22 C         144.7763  131.1561  156.6452 C.ar    1  UNL1        0.0000
     23 C         144.8747  132.3789  157.5083 C.ar    1  UNL1        0.0000
     24 C         144.2319  133.6609  157.0687 C.ar    1  UNL1        0.0016
     25 C         143.4906  133.7200  155.7660 C.ar    1  UNL1        0.0208
     26 C         140.3217  142.1748  164.7334 C.3     1  UNL1        0.0774
     27 C         139.1987  142.9745  165.3245 C.3     1  UNL1        0.0259
     28 C         140.3842  142.6090  166.1678 C.3     1  UNL1        0.0420
     29 C         141.1047  142.6488  167.4828 C.ar    1  UNL1       -0.0208
     30 C         142.5083  142.1295  167.5850 C.ar    1  UNL1       -0.0042
     31 C         143.2288  142.1693  168.9000 C.ar    1  UNL1       -0.0003
     32 C         142.5458  142.7283  170.1128 C.ar    1  UNL1       -0.0000
     33 C         141.1423  143.2476  170.0107 C.ar    1  UNL1       -0.0003
     34 C         140.4218  143.2078  168.6956 C.ar    1  UNL1       -0.0042
@<TRIPOS>BOND
     1     1     2    2
     2     2     3   am
     3     3    26    1
     4    26    27    1
     5    27    28    1
     6    28    29    1
     7    29    30   ar
     8    30    31   ar
     9    31    32   ar
    10    32    33   ar
    11    33    34   ar
    12     2     4   am
    13     4     5    1
    14     5     6    1
    15     6     7    1
    16     7    11    1
    17    11    12   ar
    18    12    13   ar
    19    13    16    1
    20    16    17   ar
    21    17    18   ar
    22    18    19   ar
    23    19    20   ar
    24    20    21   ar
    25    21    22   ar
    26    22    23   ar
    27    23    24   ar
    28    24    25   ar
    29    13    14   ar
    30    14    15   ar
    31     7     8    1
    32     8     9    1
    33    28    26    1
    34    34    29   ar
    35     9     4    1
    36    15    11   ar
    37    25    16   ar
    38    25    20   ar
    39     3    10    1
@<TRIPOS>MOLECULE
*****
 34 39 0 0 0
SMALL
GASTEIGER

@<TRIPOS>ATOM
      1 O         141.2787  143.2042  164.7969 O.2     1  UNL1       -0.2526
      2 C         141.2097  142.2246  163.6631 C.2     1  UNL1        0.3039
      3 N         141.4898  140.7717  163.9091 N.am    1  UNL1       -0.2901
      4 N         140.8604  142.6978  162.2831 N.am    1  UNL1       -0.2642
      5 C         140.5803  144.1507  162.0371 C.3     1  UNL1        0.0954
      6 C         140.2311  144.6241  160.6572 C.3     1  UNL1        0.0309
      7 C         140.1620  143.6444  159.5234 C.3     1  UNL1        0.0827
      8 C         140.4422  142.1915  159.7695 C.3     1  UNL1        0.0309
      9 C         140.7914  141.7182  161.1493 C.3     1  UNL1        0.0954
     10 H         141.4445  140.1287  163.1649 H       1  UNL1        0.1509
     11 C         139.8128  144.1178  158.1436 C.ar    1  UNL1        0.2362
     12 N         140.3894  145.3165  157.4504 N.ar    1  UNL1       -0.1895
     13 C         139.7587  145.4151  156.0931 C.ar    1  UNL1        0.2210
     14 N         138.7922  144.2773  155.9473 N.ar    1  UNL1       -0.0544
     15 O         138.8257  143.4754  157.2146 O.2     1  UNL1       -0.3370
     16 C         140.0442  146.4669  155.0624 C.ar    1  UNL1        0.1202
     17 N         140.8242  146.1170  153.8299 N.ar    1  UNL1       -0.2406
     18 C         141.1098  147.1688  152.7993 C.ar    1  UNL1        0.0989
     19 C         140.6153  148.5705  153.0011 C.ar    1  UNL1        0.0207
     20 C         139.8352  148.9204  154.2337 C.ar    1  UNL1        0.0031
     21 C         139.3408  150.3221  154.4355 C.ar    1  UNL1        0.0001
     22 C         138.5608  150.6720  155.6680 C.ar    1  UNL1        0.0000
     23 C         138.2752  149.6202  156.6987 C.ar    1  UNL1        0.0000
     24 C         138.7697  148.2185  156.4968 C.ar    1  UNL1        0.0016
     25 C         139.5497  147.8686  155.2643 C.ar    1  UNL1        0.0208
     26 C         141.8390  140.2983  165.2889 C.3     1  UNL1        0.0774
     27 C         142.6298  139.3994  166.1926 C.3     1  UNL1        0.0259
     28 C         141.6531  140.3774  166.7753 C.3     1  UNL1        0.0420
     29 C         140.9819  140.9877  167.9698 C.ar    1  UNL1       -0.0208
     30 C         141.3332  142.3821  168.3966 C.ar    1  UNL1       -0.0042
     31 C         140.6620  142.9925  169.5912 C.ar    1  UNL1       -0.0003
     32 C         139.6394  142.2084  170.3590 C.ar    1  UNL1       -0.0000
     33 C         139.2881  140.8139  169.9322 C.ar    1  UNL1       -0.0003
     34 C         139.9593  140.2036  168.7377 C.ar    1  UNL1       -0.0042
@<TRIPOS>BOND
     1     1     2    2
     2     2     3   am
     3     3    26    1
     4    26    27    1
     5    27    28    1
     6    28    29    1
     7    29    30   ar
     8    30    31   ar
     9    31    32   ar
    10    32    33   ar
    11    33    34   ar
    12     2     4   am
    13     4     5    1
    14     5     6    1
    15     6     7    1
    16     7    11    1
    17    11    12   ar
    18    12    13   ar
    19    13    16    1
    20    16    17   ar
    21    17    18   ar
    22    18    19   ar
    23    19    20   ar
    24    20    21   ar
    25    21    22   ar
    26    22    23   ar
    27    23    24   ar
    28    24    25   ar
    29    13    14   ar
    30    14    15   ar
    31     7     8    1
    32     8     9    1
    33    28    26    1
    34    34    29   ar
    35     9     4    1
    36    15    11   ar
    37    25    16   ar
    38    25    20   ar
    39     3    10    1
@<TRIPOS>MOLECULE
*****
 34 39 0 0 0
SMALL
GASTEIGER

@<TRIPOS>ATOM
      1 O         142.4497  144.9707  155.7015 O.2     1  UNL1       -0.2526
      2 C         141.6197  145.4303  156.8633 C.2     1  UNL1        0.3039
      3 N         140.5871  146.5011  156.6704 N.am    1  UNL1       -0.2901
      4 N         141.8223  144.8193  158.2182 N.am    1  UNL1       -0.2642
      5 C         142.8549  143.7485  158.4111 C.3     1  UNL1        0.0954
      6 C         143.0576  143.1373  159.7658 C.3     1  UNL1        0.0309
      7 C         142.2277  143.5970  160.9277 C.3     1  UNL1        0.0827
      8 C         141.1951  144.6677  160.7348 C.3     1  UNL1        0.0309
      9 C         140.9924  145.2789  159.3800 C.3     1  UNL1        0.0954
     10 H         140.0424  146.8028  157.4330 H       1  UNL1        0.1509
     11 C         142.4304  142.9858  162.2825 C.ar    1  UNL1        0.2362
     12 N         141.3787  142.8130  163.3380 N.ar    1  UNL1       -0.1895
     13 C         142.0186  142.1605  164.5275 C.ar    1  UNL1        0.2210
     14 N         143.4658  141.9302  164.2070 N.ar    1  UNL1       -0.0544
     15 O         143.7202  142.4402  162.8196 O.2     1  UNL1       -0.3370
     16 C         141.3320  141.8015  165.8119 C.ar    1  UNL1        0.1202
     17 N         141.6525  142.5537  167.0694 N.ar    1  UNL1       -0.2406
     18 C         140.9659  142.1947  168.3538 C.ar    1  UNL1        0.0989
     19 C         139.9586  141.0835  168.3806 C.ar    1  UNL1        0.0207
     20 C         139.6380  140.3313  167.1230 C.ar    1  UNL1        0.0031
     21 C         138.6308  139.2202  167.1498 C.ar    1  UNL1        0.0001
     22 C         138.3102  138.4680  165.8923 C.ar    1  UNL1        0.0000
     23 C         138.9968  138.8270  164.6079 C.ar    1  UNL1        0.0000
     24 C         140.0041  139.9382  164.5811 C.ar    1  UNL1        0.0016
     25 C         140.3247  140.6903  165.8386 C.ar    1  UNL1        0.0208
     26 C         140.3844  147.1123  155.3156 C.3     1  UNL1        0.0774
     27 C         140.4301  147.0012  153.8204 C.3     1  UNL1        0.0259
     28 C         139.9877  148.2818  154.4643 C.3     1  UNL1        0.0420
     29 C         139.5032  149.6963  154.3444 C.ar    1  UNL1       -0.0208
     30 C         138.8789  150.3779  155.5258 C.ar    1  UNL1       -0.0042
     31 C         138.3944  151.7924  155.4060 C.ar    1  UNL1       -0.0003
     32 C         138.5343  152.5254  154.1048 C.ar    1  UNL1       -0.0000
     33 C         139.1587  151.8439  152.9234 C.ar    1  UNL1       -0.0003
     34 C         139.6431  150.4293  153.0433 C.ar    1  UNL1       -0.0042
@<TRIPOS>BOND
     1     1     2    2
     2     2     3   am
     3     3    26    1
     4    26    27    1
     5    27    28    1
     6    28    29    1
     7    29    30   ar
     8    30    31   ar
     9    31    32   ar
    10    32    33   ar
    11    33    34   ar
    12     2     4   am
    13     4     5    1
    14     5     6    1
    15     6     7    1
    16     7    11    1
    17    11    12   ar
    18    12    13   ar
    19    13    16    1
    20    16    17   ar
    21    17    18   ar
    22    18    19   ar
    23    19    20   ar
    24    20    21   ar
    25    21    22   ar
    26    22    23   ar
    27    23    24   ar
    28    24    25   ar
    29    13    14   ar
    30    14    15   ar
    31     7     8    1
    32     8     9    1
    33    28    26    1
    34    34    29   ar
    35     9     4    1
    36    15    11   ar
    37    25    16   ar
    38    25    20   ar
    39     3    10    1
@<TRIPOS>MOLECULE
*****
 34 39 0 0 0
SMALL
GASTEIGER

@<TRIPOS>ATOM
      1 O         142.1667  145.1068  156.0079 O.2     1  UNL1       -0.2526
      2 C         141.2182  145.6150  157.0528 C.2     1  UNL1        0.3039
      3 N         140.2208  146.6804  156.7058 N.am    1  UNL1       -0.2901
      4 N         141.2668  145.0580  158.4447 N.am    1  UNL1       -0.2642
      5 C         142.2642  143.9927  158.7917 C.3     1  UNL1        0.0954
      6 C         142.3130  143.4357  160.1835 C.3     1  UNL1        0.0309
      7 C         141.3644  143.9439  161.2284 C.3     1  UNL1        0.0827
      8 C         140.3670  145.0092  160.8815 C.3     1  UNL1        0.0309
      9 C         140.3182  145.5663  159.4896 C.3     1  UNL1        0.0954
     10 H         139.5982  147.0139  157.3917 H       1  UNL1        0.1509
     11 C         141.4132  143.3868  162.6203 C.ar    1  UNL1        0.2362
     12 N         140.4716  142.3716  163.1972 N.ar    1  UNL1       -0.1895
     13 C         140.8886  142.1045  164.6130 C.ar    1  UNL1        0.2210
     14 N         142.0879  142.9545  164.9112 N.ar    1  UNL1       -0.0544
     15 O         142.4122  143.7471  163.6797 O.2     1  UNL1       -0.3370
     16 C         140.2231  141.1541  165.5638 C.ar    1  UNL1        0.1202
     17 N         139.6300  139.8746  165.0529 N.ar    1  UNL1       -0.2406
     18 C         138.9645  138.9242  166.0037 C.ar    1  UNL1        0.0989
     19 C         138.8920  139.2534  167.4653 C.ar    1  UNL1        0.0207
     20 C         139.4851  140.5330  167.9762 C.ar    1  UNL1        0.0031
     21 C         139.4127  140.8622  169.4378 C.ar    1  UNL1        0.0001
     22 C         140.0057  142.1417  169.9487 C.ar    1  UNL1        0.0000
     23 C         140.6712  143.0921  168.9979 C.ar    1  UNL1        0.0000
     24 C         140.7437  142.7629  167.5363 C.ar    1  UNL1        0.0016
     25 C         140.1506  141.4834  167.0255 C.ar    1  UNL1        0.0208
     26 C         140.1720  147.2374  155.3140 C.3     1  UNL1        0.0774
     27 C         140.3667  147.0621  153.8370 C.3     1  UNL1        0.0259
     28 C         139.8927  148.3776  154.3801 C.3     1  UNL1        0.0420
     29 C         139.4578  149.7953  154.1545 C.ar    1  UNL1       -0.0208
     30 C         139.5817  150.4100  152.7919 C.ar    1  UNL1       -0.0042
     31 C         139.1468  151.8277  152.5663 C.ar    1  UNL1       -0.0003
     32 C         138.5880  152.6308  153.7033 C.ar    1  UNL1       -0.0000
     33 C         138.4640  152.0161  155.0659 C.ar    1  UNL1       -0.0003
     34 C         138.8989  150.5983  155.2915 C.ar    1  UNL1       -0.0042
@<TRIPOS>BOND
     1     1     2    2
     2     2     3   am
     3     3    26    1
     4    26    27    1
     5    27    28    1
     6    28    29    1
     7    29    30   ar
     8    30    31   ar
     9    31    32   ar
    10    32    33   ar
    11    33    34   ar
    12     2     4   am
    13     4     5    1
    14     5     6    1
    15     6     7    1
    16     7    11    1
    17    11    12   ar
    18    12    13   ar
    19    13    16    1
    20    16    17   ar
    21    17    18   ar
    22    18    19   ar
    23    19    20   ar
    24    20    21   ar
    25    21    22   ar
    26    22    23   ar
    27    23    24   ar
    28    24    25   ar
    29    13    14   ar
    30    14    15   ar
    31     7     8    1
    32     8     9    1
    33    28    26    1
    34    34    29   ar
    35     9     4    1
    36    15    11   ar
    37    25    16   ar
    38    25    20   ar
    39     3    10    1
@<TRIPOS>MOLECULE
*****
 34 39 0 0 0
SMALL
GASTEIGER

@<TRIPOS>ATOM
      1 O         141.5839  144.9544  155.8925 O.2     1  UNL1       -0.2526
      2 C         141.0634  145.4044  157.2254 C.2     1  UNL1        0.3039
      3 N         139.9747  146.4338  157.2968 N.am    1  UNL1       -0.2901
      4 N         141.6317  144.8252  158.4870 N.am    1  UNL1       -0.2642
      5 C         142.7204  143.7958  158.4156 C.3     1  UNL1        0.0954
      6 C         143.2887  143.2164  159.6770 C.3     1  UNL1        0.0309
      7 C         142.7683  143.6664  161.0099 C.3     1  UNL1        0.0827
      8 C         141.6796  144.6958  161.0813 C.3     1  UNL1        0.0309
      9 C         141.1113  145.2752  159.8199 C.3     1  UNL1        0.0954
     10 H         139.6331  146.7292  158.1716 H       1  UNL1        0.1509
     11 C         143.3366  143.0871  162.2714 C.ar    1  UNL1        0.2362
     12 N         142.7511  141.9563  163.0642 N.ar    1  UNL1       -0.1895
     13 C         143.6428  141.7071  164.2444 C.ar    1  UNL1        0.2210
     14 N         144.7794  142.6839  164.1809 N.ar    1  UNL1       -0.0544
     15 O         144.5902  143.5368  162.9616 O.2     1  UNL1       -0.3370
     16 C         143.4345  140.6642  165.3022 C.ar    1  UNL1        0.1202
     17 N         144.1082  139.3294  165.1825 N.ar    1  UNL1       -0.2406
     18 C         143.8999  138.2866  166.2403 C.ar    1  UNL1        0.0989
     19 C         143.0179  138.5785  167.4179 C.ar    1  UNL1        0.0207
     20 C         142.3441  139.9133  167.5377 C.ar    1  UNL1        0.0031
     21 C         141.4620  140.2053  168.7153 C.ar    1  UNL1        0.0001
     22 C         140.7883  141.5401  168.8350 C.ar    1  UNL1        0.0000
     23 C         140.9966  142.5829  167.7772 C.ar    1  UNL1        0.0000
     24 C         141.8787  142.2910  166.5996 C.ar    1  UNL1        0.0016
     25 C         142.5524  140.9562  166.4799 C.ar    1  UNL1        0.0208
     26 C         139.4064  147.0132  156.0353 C.3     1  UNL1        0.0774
     27 C         138.7343  146.8259  154.7074 C.3     1  UNL1        0.0259
     28 C         139.0941  148.2039  155.1782 C.3     1  UNL1        0.0420
     29 C         139.1216  149.6870  154.9551 C.ar    1  UNL1       -0.0208
     30 C         139.6780  150.2431  153.6780 C.ar    1  UNL1       -0.0042
     31 C         139.7055  151.7262  153.4549 C.ar    1  UNL1       -0.0003
     32 C         139.1765  152.6531  154.5089 C.ar    1  UNL1       -0.0000
     33 C         138.6201  152.0970  155.7861 C.ar    1  UNL1       -0.0003
     34 C         138.5927  150.6139  156.0091 C.ar    1  UNL1       -0.0042
@<TRIPOS>BOND
     1     1     2    2
     2     2     3   am
     3     3    26    1
     4    26    27    1
     5    27    28    1
     6    28    29    1
     7    29    30   ar
     8    30    31   ar
     9    31    32   ar
    10    32    33   ar
    11    33    34   ar
    12     2     4   am
    13     4     5    1
    14     5     6    1
    15     6     7    1
    16     7    11    1
    17    11    12   ar
    18    12    13   ar
    19    13    16    1
    20    16    17   ar
    21    17    18   ar
    22    18    19   ar
    23    19    20   ar
    24    20    21   ar
    25    21    22   ar
    26    22    23   ar
    27    23    24   ar
    28    24    25   ar
    29    13    14   ar
    30    14    15   ar
    31     7     8    1
    32     8     9    1
    33    28    26    1
    34    34    29   ar
    35     9     4    1
    36    15    11   ar
    37    25    16   ar
    38    25    20   ar
    39     3    10    1
@<TRIPOS>MOLECULE
*****
 34 39 0 0 0
SMALL
GASTEIGER

@<TRIPOS>ATOM
      1 O         141.5949  140.1469  164.0251 O.2     1  UNL1       -0.2526
      2 C         142.0160  141.4184  163.3499 C.2     1  UNL1        0.3039
      3 N         141.7850  142.7380  164.0247 N.am    1  UNL1       -0.2901
      4 N         142.6680  141.3704  161.9999 N.am    1  UNL1       -0.2642
      5 C         142.8990  140.0508  161.3251 C.3     1  UNL1        0.0954
      6 C         143.5511  140.0027  159.9751 C.3     1  UNL1        0.0309
      7 C         143.9721  141.2742  159.2999 C.3     1  UNL1        0.0827
      8 C         143.7412  142.5939  159.9747 C.3     1  UNL1        0.0309
      9 C         143.0891  142.6420  161.3247 C.3     1  UNL1        0.0954
     10 H         142.0614  143.5726  163.5815 H       1  UNL1        0.1509
     11 C         144.6242  141.2261  157.9499 C.ar    1  UNL1        0.2362
     12 N         145.1419  142.4037  157.1783 N.ar    1  UNL1       -0.1895
     13 C         145.7107  141.8975  155.8860 C.ar    1  UNL1        0.2210
     14 N         145.5445  140.4069  155.8588 N.ar    1  UNL1       -0.0544
     15 O         144.8730  139.9920  157.1344 O.2     1  UNL1       -0.3370
     16 C         146.3359  142.7347  154.8098 C.ar    1  UNL1        0.1202
     17 N         145.4880  143.6691  153.9988 N.ar    1  UNL1       -0.2406
     18 C         146.1132  144.5063  152.9226 C.ar    1  UNL1        0.0989
     19 C         147.5863  144.4091  152.6574 C.ar    1  UNL1        0.0207
     20 C         148.4344  143.4746  153.4685 C.ar    1  UNL1        0.0031
     21 C         149.9075  143.3775  153.2034 C.ar    1  UNL1        0.0001
     22 C         150.7554  142.4431  154.0144 C.ar    1  UNL1        0.0000
     23 C         150.1302  141.6058  155.0906 C.ar    1  UNL1        0.0000
     24 C         148.6571  141.7030  155.3557 C.ar    1  UNL1        0.0016
     25 C         147.8092  142.6374  154.5447 C.ar    1  UNL1        0.0208
     26 C         141.1330  142.7861  165.3747 C.3     1  UNL1        0.0774
     27 C         140.0168  143.2512  166.2624 C.3     1  UNL1        0.0259
     28 C         141.1196  142.4044  166.8252 C.3     1  UNL1        0.0420
     29 C         141.7487  141.6952  167.9877 C.ar    1  UNL1       -0.0208
     30 C         141.3047  140.3089  168.3499 C.ar    1  UNL1       -0.0042
     31 C         141.9337  139.5997  169.5124 C.ar    1  UNL1       -0.0003
     32 C         143.0067  140.2766  170.3126 C.ar    1  UNL1       -0.0000
     33 C         143.4507  141.6628  169.9504 C.ar    1  UNL1       -0.0003
     34 C         142.8217  142.3721  168.7879 C.ar    1  UNL1       -0.0042
@<TRIPOS>BOND
     1     1     2    2
     2     2     3   am
     3     3    26    1
     4    26    27    1
     5    27    28    1
     6    28    29    1
     7    29    30   ar
     8    30    31   ar
     9    31    32   ar
    10    32    33   ar
    11    33    34   ar
    12     2     4   am
    13     4     5    1
    14     5     6    1
    15     6     7    1
    16     7    11    1
    17    11    12   ar
    18    12    13   ar
    19    13    16    1
    20    16    17   ar
    21    17    18   ar
    22    18    19   ar
    23    19    20   ar
    24    20    21   ar
    25    21    22   ar
    26    22    23   ar
    27    23    24   ar
    28    24    25   ar
    29    13    14   ar
    30    14    15   ar
    31     7     8    1
    32     8     9    1
    33    28    26    1
    34    34    29   ar
    35     9     4    1
    36    15    11   ar
    37    25    16   ar
    38    25    20   ar
    39     3    10    1
@<TRIPOS>MOLECULE
*****
 34 39 0 0 0
SMALL
GASTEIGER

@<TRIPOS>ATOM
      1 O         142.0798  146.1776  157.7687 O.2     1  UNL1       -0.2526
      2 C         140.8905  145.2827  157.9542 C.2     1  UNL1        0.3039
      3 N         139.8794  145.1415  156.8552 N.am    1  UNL1       -0.2901
      4 N         140.7121  144.5287  159.2386 N.am    1  UNL1       -0.2642
      5 C         141.7232  144.6698  160.3377 C.3     1  UNL1        0.0954
      6 C         141.5449  143.9160  161.6221 C.3     1  UNL1        0.0309
      7 C         140.3555  143.0210  161.8076 C.3     1  UNL1        0.0827
      8 C         139.3445  142.8799  160.7086 C.3     1  UNL1        0.0309
      9 C         139.5227  143.6337  159.4241 C.3     1  UNL1        0.0954
     10 H         139.0988  144.5541  156.9769 H       1  UNL1        0.1509
     11 C         140.1773  142.2671  163.0921 C.ar    1  UNL1        0.2362
     12 N         141.2532  141.9612  164.0914 N.ar    1  UNL1       -0.1895
     13 C         140.6327  141.1918  165.2197 C.ar    1  UNL1        0.2210
     14 N         139.1733  141.0222  164.9177 N.ar    1  UNL1       -0.0544
     15 O         138.8918  141.6868  163.6027 O.2     1  UNL1       -0.3370
     16 C         141.3464  140.6816  166.4365 C.ar    1  UNL1        0.1202
     17 N         142.1397  139.4107  166.3628 N.ar    1  UNL1       -0.2406
     18 C         142.8533  138.9005  167.5796 C.ar    1  UNL1        0.0989
     19 C         142.7737  139.6612  168.8699 C.ar    1  UNL1        0.0207
     20 C         141.9803  140.9321  168.9436 C.ar    1  UNL1        0.0031
     21 C         141.9006  141.6928  170.2339 C.ar    1  UNL1        0.0001
     22 C         141.1073  142.9636  170.3075 C.ar    1  UNL1        0.0000
     23 C         140.3936  143.4738  169.0908 C.ar    1  UNL1        0.0000
     24 C         140.4733  142.7132  167.8005 C.ar    1  UNL1        0.0016
     25 C         141.2666  141.4423  167.7268 C.ar    1  UNL1        0.0208
     26 C         140.0577  145.8954  155.5707 C.3     1  UNL1        0.0774
     27 C         140.4826  145.9292  154.1325 C.3     1  UNL1        0.0259
     28 C         139.9415  147.1673  154.7840 C.3     1  UNL1        0.0420
     29 C         139.5621  148.6164  154.7060 C.ar    1  UNL1       -0.0208
     30 C         138.7880  149.2503  155.8236 C.ar    1  UNL1       -0.0042
     31 C         138.4086  150.6994  155.7456 C.ar    1  UNL1       -0.0003
     32 C         138.8032  151.5147  154.5499 C.ar    1  UNL1       -0.0000
     33 C         139.5772  150.8808  153.4323 C.ar    1  UNL1       -0.0003
     34 C         139.9567  149.4317  153.5104 C.ar    1  UNL1       -0.0042
@<TRIPOS>BOND
     1     1     2    2
     2     2     3   am
     3     3    26    1
     4    26    27    1
     5    27    28    1
     6    28    29    1
     7    29    30   ar
     8    30    31   ar
     9    31    32   ar
    10    32    33   ar
    11    33    34   ar
    12     2     4   am
    13     4     5    1
    14     5     6    1
    15     6     7    1
    16     7    11    1
    17    11    12   ar
    18    12    13   ar
    19    13    16    1
    20    16    17   ar
    21    17    18   ar
    22    18    19   ar
    23    19    20   ar
    24    20    21   ar
    25    21    22   ar
    26    22    23   ar
    27    23    24   ar
    28    24    25   ar
    29    13    14   ar
    30    14    15   ar
    31     7     8    1
    32     8     9    1
    33    28    26    1
    34    34    29   ar
    35     9     4    1
    36    15    11   ar
    37    25    16   ar
    38    25    20   ar
    39     3    10    1
@<TRIPOS>MOLECULE
*****
 34 39 0 0 0
SMALL
GASTEIGER

@<TRIPOS>ATOM
      1 O         139.0289  141.0434  163.0323 O.2     1  UNL1       -0.2526
      2 C         140.5085  141.0369  162.7862 C.2     1  UNL1        0.3039
      3 N         141.4245  141.7929  163.7025 N.am    1  UNL1       -0.2901
      4 N         141.0723  140.2745  161.6239 N.am    1  UNL1       -0.2642
      5 C         140.1563  139.5185  160.7077 C.3     1  UNL1        0.0954
      6 C         140.7199  138.7561  159.5454 C.3     1  UNL1        0.0309
      7 C         142.1995  138.7496  159.2993 C.3     1  UNL1        0.0827
      8 C         143.1155  139.5056  160.2155 C.3     1  UNL1        0.0309
      9 C         142.5519  140.2680  161.3779 C.3     1  UNL1        0.0954
     10 H         142.3957  141.7886  163.5409 H       1  UNL1        0.1509
     11 C         142.7632  137.9872  158.1370 C.ar    1  UNL1        0.2362
     12 N         142.5140  136.5408  157.8271 N.ar    1  UNL1       -0.1895
     13 C         143.2717  136.1969  156.5791 C.ar    1  UNL1        0.2210
     14 N         143.9892  137.4307  156.1177 N.ar    1  UNL1       -0.0544
     15 O         143.6749  138.5372  157.0805 O.2     1  UNL1       -0.3370
     16 C         143.3059  134.8549  155.9099 C.ar    1  UNL1        0.1202
     17 N         144.0805  133.7285  156.5274 N.ar    1  UNL1       -0.2406
     18 C         144.1147  132.3864  155.8583 C.ar    1  UNL1        0.0989
     19 C         143.3744  132.1707  154.5717 C.ar    1  UNL1        0.0207
     20 C         142.5998  133.2971  153.9542 C.ar    1  UNL1        0.0031
     21 C         141.8594  133.0815  152.6676 C.ar    1  UNL1        0.0001
     22 C         141.0849  134.2078  152.0501 C.ar    1  UNL1        0.0000
     23 C         141.0507  135.5499  152.7192 C.ar    1  UNL1        0.0000
     24 C         141.7910  135.7656  154.0058 C.ar    1  UNL1        0.0016
     25 C         142.5655  134.6392  154.6233 C.ar    1  UNL1        0.0208
     26 C         140.8609  142.5553  164.8648 C.3     1  UNL1        0.0774
     27 C         139.9090  143.5796  165.4077 C.3     1  UNL1        0.0259
     28 C         140.8365  142.8517  166.3350 C.3     1  UNL1        0.0420
     29 C         141.3580  142.6025  167.7192 C.ar    1  UNL1       -0.0208
     30 C         140.4314  142.6852  168.8959 C.ar    1  UNL1       -0.0042
     31 C         140.9529  142.4361  170.2801 C.ar    1  UNL1       -0.0003
     32 C         142.4009  142.1043  170.4877 C.ar    1  UNL1       -0.0000
     33 C         143.3275  142.0216  169.3110 C.ar    1  UNL1       -0.0003
     34 C         142.8060  142.2707  167.9268 C.ar    1  UNL1       -0.0042
@<TRIPOS>BOND
     1     1     2    2
     2     2     3   am
     3     3    26    1
     4    26    27    1
     5    27    28    1
     6    28    29    1
     7    29    30   ar
     8    30    31   ar
     9    31    32   ar
    10    32    33   ar
    11    33    34   ar
    12     2     4   am
    13     4     5    1
    14     5     6    1
    15     6     7    1
    16     7    11    1
    17    11    12   ar
    18    12    13   ar
    19    13    16    1
    20    16    17   ar
    21    17    18   ar
    22    18    19   ar
    23    19    20   ar
    24    20    21   ar
    25    21    22   ar
    26    22    23   ar
    27    23    24   ar
    28    24    25   ar
    29    13    14   ar
    30    14    15   ar
    31     7     8    1
    32     8     9    1
    33    28    26    1
    34    34    29   ar
    35     9     4    1
    36    15    11   ar
    37    25    16   ar
    38    25    20   ar
    39     3    10    1
