@<TRIPOS>MOLECULE
*****
 25 26 0 0 0
SMALL
GASTEIGER

@<TRIPOS>ATOM
      1 C         141.5406  141.0048  166.1024 C.3     1  UNL1        0.1597
      2 C         140.5363  139.9040  165.9303 C.ar    1  UNL1        0.0140
      3 C         139.2447  139.9414  166.6920 C.ar    1  UNL1       -0.0009
      4 C         138.2404  138.8405  166.5199 C.ar    1  UNL1       -0.0002
      5 C         138.5278  137.7023  165.5862 C.ar    1  UNL1       -0.0000
      6 C         139.8195  137.6650  164.8245 C.ar    1  UNL1       -0.0002
      7 C         140.8237  138.7658  164.9965 C.ar    1  UNL1       -0.0009
      8 C         141.8990  140.4663  167.4557 C.3     1  UNL1        0.0570
      9 C         142.5416  139.4638  167.6971 C.3     1  UNL1        0.0054
     10 C         141.4518  141.1876  168.6925 C.3     1  UNL1        0.0760
     11 N         142.4108  141.3972  169.8266 N.3     1  UNL1       -0.2702
     12 C         143.6025  142.2902  169.6459 C.3     1  UNL1        0.0897
     13 C         142.1783  140.7138  171.1415 C.3     1  UNL1        0.0897
     14 O         142.5448  142.1057  166.2744 O.3     1  UNL1       -0.4511
     15 C         143.7749  142.1396  165.4165 C.2     1  UNL1        0.3171
     16 O         144.3453  141.1895  164.9183 O.2     1  UNL1       -0.2501
     17 C         143.7007  144.4695  164.2694 C.3     1  UNL1        0.0122
     18 C         144.4290  143.4505  165.0948 C.3     1  UNL1        0.1096
     19 C         141.1821  141.5433  164.7490 C.3     1  UNL1        0.0708
     20 C         140.0095  142.4661  164.5955 C.ar    1  UNL1       -0.0183
     21 C         138.9128  142.1307  163.6287 C.ar    1  UNL1       -0.0041
     22 C         137.7402  143.0534  163.4752 C.ar    1  UNL1       -0.0003
     23 C         137.6644  144.3115  164.2884 C.ar    1  UNL1       -0.0000
     24 C         138.7611  144.6469  165.2552 C.ar    1  UNL1       -0.0003
     25 C         139.9336  143.7242  165.4087 C.ar    1  UNL1       -0.0041
@<TRIPOS>BOND
     1    17    18    1
     2    18    15    1
     3    15    16    2
     4    15    14    1
     5    14     1    1
     6     1    19    1
     7    19    20    1
     8    20    21   ar
     9    21    22   ar
    10    22    23   ar
    11    23    24   ar
    12    24    25   ar
    13     1     2    1
    14     2     3   ar
    15     3     4   ar
    16     4     5   ar
    17     5     6   ar
    18     6     7   ar
    19     1     8    1
    20     8     9    1
    21     8    10    1
    22    10    11    1
    23    11    12    1
    24    11    13    1
    25    25    20   ar
    26     7     2   ar
@<TRIPOS>MOLECULE
*****
 25 26 0 0 0
SMALL
GASTEIGER

@<TRIPOS>ATOM
      1 C         141.5308  140.9909  166.0891 C.3     1  UNL1        0.1597
      2 C         140.5209  139.8932  165.9307 C.ar    1  UNL1        0.0140
      3 C         140.7932  138.7527  164.9953 C.ar    1  UNL1       -0.0009
      4 C         139.7832  137.6550  164.8370 C.ar    1  UNL1       -0.0002
      5 C         138.5009  137.6978  165.6140 C.ar    1  UNL1       -0.0000
      6 C         138.2286  138.8384  166.5495 C.ar    1  UNL1       -0.0002
      7 C         139.2385  139.9360  166.7078 C.ar    1  UNL1       -0.0009
      8 C         141.9027  140.4538  167.4394 C.3     1  UNL1        0.0570
      9 C         142.5441  139.4493  167.6755 C.3     1  UNL1        0.0054
     10 C         141.4727  141.1796  168.6797 C.3     1  UNL1        0.0760
     11 N         142.4428  141.3794  169.8061 N.3     1  UNL1       -0.2702
     12 C         142.2271  140.6789  171.1149 C.3     1  UNL1        0.0897
     13 C         143.6286  142.2798  169.6238 C.3     1  UNL1        0.0897
     14 O         142.5407  142.0886  166.2475 O.3     1  UNL1       -0.4511
     15 C         143.7784  142.0970  165.3999 C.2     1  UNL1        0.3171
     16 O         144.3371  141.1347  164.9120 O.2     1  UNL1       -0.2501
     17 C         143.7251  144.4515  164.3027 C.3     1  UNL1        0.0122
     18 C         144.4569  143.3950  165.0763 C.3     1  UNL1        0.1096
     19 C         141.1589  141.5279  164.7388 C.3     1  UNL1        0.0708
     20 C         139.9914  142.4591  164.5976 C.ar    1  UNL1       -0.0183
     21 C         138.8811  142.1307  163.6440 C.ar    1  UNL1       -0.0041
     22 C         137.7137  143.0619  163.5028 C.ar    1  UNL1       -0.0003
     23 C         137.6567  144.3216  164.3151 C.ar    1  UNL1       -0.0000
     24 C         138.7670  144.6501  165.2687 C.ar    1  UNL1       -0.0003
     25 C         139.9344  143.7189  165.4099 C.ar    1  UNL1       -0.0041
@<TRIPOS>BOND
     1    17    18    1
     2    18    15    1
     3    15    16    2
     4    15    14    1
     5    14     1    1
     6     1    19    1
     7    19    20    1
     8    20    21   ar
     9    21    22   ar
    10    22    23   ar
    11    23    24   ar
    12    24    25   ar
    13     1     2    1
    14     2     3   ar
    15     3     4   ar
    16     4     5   ar
    17     5     6   ar
    18     6     7   ar
    19     1     8    1
    20     8     9    1
    21     8    10    1
    22    10    11    1
    23    11    12    1
    24    11    13    1
    25    25    20   ar
    26     7     2   ar
@<TRIPOS>MOLECULE
*****
 25 26 0 0 0
SMALL
GASTEIGER

@<TRIPOS>ATOM
      1 C         141.7493  140.3686  165.4385 C.3     1  UNL1        0.1597
      2 C         143.0452  140.8740  164.8770 C.ar    1  UNL1        0.0140
      3 C         143.6081  142.1816  165.3497 C.ar    1  UNL1       -0.0009
      4 C         144.9040  142.6870  164.7882 C.ar    1  UNL1       -0.0002
      5 C         145.6369  141.8850  163.7540 C.ar    1  UNL1       -0.0000
      6 C         145.0739  140.5774  163.2813 C.ar    1  UNL1       -0.0002
      7 C         143.7781  140.0720  163.8428 C.ar    1  UNL1       -0.0009
      8 C         142.4754  139.8440  166.6418 C.3     1  UNL1        0.0570
      9 C         143.1779  138.8544  166.6980 C.3     1  UNL1        0.0054
     10 C         142.3717  140.5644  167.9534 C.3     1  UNL1        0.0760
     11 N         141.6837  139.9113  169.1153 N.3     1  UNL1       -0.2702
     12 C         140.2179  140.1358  169.3418 C.3     1  UNL1        0.0897
     13 C         142.4614  139.0338  170.0508 C.3     1  UNL1        0.0897
     14 O         140.4535  139.8631  166.0000 O.3     1  UNL1       -0.4511
     15 C         139.8587  138.5871  165.4821 C.2     1  UNL1        0.3171
     16 O         140.4420  137.6876  164.9103 O.2     1  UNL1       -0.2501
     17 C         137.7266  138.5942  166.9669 C.3     1  UNL1        0.0122
     18 C         138.3922  138.3207  165.6507 C.3     1  UNL1        0.1096
     19 C         141.0234  140.8931  164.2353 C.3     1  UNL1        0.0708
     20 C         139.9681  141.9469  164.3964 C.ar    1  UNL1       -0.0183
     21 C         140.2822  143.2169  165.1300 C.ar    1  UNL1       -0.0041
     22 C         139.2269  144.2706  165.2911 C.ar    1  UNL1       -0.0003
     23 C         137.8574  144.0543  164.7185 C.ar    1  UNL1       -0.0000
     24 C         137.5433  142.7843  163.9848 C.ar    1  UNL1       -0.0003
     25 C         138.5986  141.7306  163.8238 C.ar    1  UNL1       -0.0041
@<TRIPOS>BOND
     1    17    18    1
     2    18    15    1
     3    15    16    2
     4    15    14    1
     5    14     1    1
     6     1    19    1
     7    19    20    1
     8    20    21   ar
     9    21    22   ar
    10    22    23   ar
    11    23    24   ar
    12    24    25   ar
    13     1     2    1
    14     2     3   ar
    15     3     4   ar
    16     4     5   ar
    17     5     6   ar
    18     6     7   ar
    19     1     8    1
    20     8     9    1
    21     8    10    1
    22    10    11    1
    23    11    12    1
    24    11    13    1
    25    25    20   ar
    26     7     2   ar
@<TRIPOS>MOLECULE
*****
 25 26 0 0 0
SMALL
GASTEIGER

@<TRIPOS>ATOM
      1 C         141.4686  141.3687  165.1062 C.3     1  UNL1        0.1597
      2 C         140.2844  142.2720  164.9286 C.ar    1  UNL1        0.0140
      3 C         138.9228  141.6868  164.6969 C.ar    1  UNL1       -0.0009
      4 C         137.7385  142.5902  164.5194 C.ar    1  UNL1       -0.0002
      5 C         137.9158  144.0786  164.5735 C.ar    1  UNL1       -0.0000
      6 C         139.2774  144.6638  164.8052 C.ar    1  UNL1       -0.0002
      7 C         140.4617  143.7605  164.9828 C.ar    1  UNL1       -0.0009
      8 C         141.9797  141.7733  163.7551 C.3     1  UNL1        0.0570
      9 C         141.3496  141.8140  162.7171 C.3     1  UNL1        0.0054
     10 C         143.4123  142.1850  163.5877 C.3     1  UNL1        0.0760
     11 N         143.8753  143.5155  164.1028 N.3     1  UNL1       -0.2702
     12 C         143.7090  144.7452  163.2601 C.3     1  UNL1        0.0897
     13 C         144.5048  143.6163  165.4606 C.3     1  UNL1        0.0897
     14 O         142.6529  140.4654  165.2837 O.3     1  UNL1       -0.4511
     15 C         142.4712  138.9766  165.2576 C.2     1  UNL1        0.3171
     16 O         142.9917  138.1634  165.9952 O.2     1  UNL1       -0.2501
     17 C         140.2525  137.7612  164.6658 C.3     1  UNL1        0.0122
     18 C         141.5651  138.3494  164.2400 C.3     1  UNL1        0.1096
     19 C         140.9575  140.9642  166.4571 C.3     1  UNL1        0.0708
     20 C         141.4077  141.7042  167.6818 C.ar    1  UNL1       -0.0183
     21 C         140.4436  142.5799  168.4257 C.ar    1  UNL1       -0.0041
     22 C         140.8938  143.3199  169.6503 C.ar    1  UNL1       -0.0003
     23 C         142.3082  143.1840  170.1310 C.ar    1  UNL1       -0.0000
     24 C         143.2723  142.3083  169.3871 C.ar    1  UNL1       -0.0003
     25 C         142.8221  141.5683  168.1625 C.ar    1  UNL1       -0.0041
@<TRIPOS>BOND
     1    17    18    1
     2    18    15    1
     3    15    16    2
     4    15    14    1
     5    14     1    1
     6     1    19    1
     7    19    20    1
     8    20    21   ar
     9    21    22   ar
    10    22    23   ar
    11    23    24   ar
    12    24    25   ar
    13     1     2    1
    14     2     3   ar
    15     3     4   ar
    16     4     5   ar
    17     5     6   ar
    18     6     7   ar
    19     1     8    1
    20     8     9    1
    21     8    10    1
    22    10    11    1
    23    11    12    1
    24    11    13    1
    25    25    20   ar
    26     7     2   ar
@<TRIPOS>MOLECULE
*****
 25 26 0 0 0
SMALL
GASTEIGER

@<TRIPOS>ATOM
      1 C         140.6961  140.9619  166.2123 C.3     1  UNL1        0.1597
      2 C         140.3357  141.3284  167.6214 C.ar    1  UNL1        0.0140
      3 C         140.7072  142.6765  168.1642 C.ar    1  UNL1       -0.0009
      4 C         140.3467  143.0429  169.5734 C.ar    1  UNL1       -0.0002
      5 C         139.6147  142.0613  170.4398 C.ar    1  UNL1       -0.0000
      6 C         139.2432  140.7132  169.8970 C.ar    1  UNL1       -0.0002
      7 C         139.6036  140.3467  168.4879 C.ar    1  UNL1       -0.0009
      8 C         142.1192  140.7432  166.6333 C.3     1  UNL1        0.0570
      9 C         142.5920  139.7336  167.1162 C.3     1  UNL1        0.0054
     10 C         143.1265  141.8429  166.4719 C.3     1  UNL1        0.0760
     11 N         143.6234  142.2100  165.1051 N.3     1  UNL1       -0.2702
     12 C         143.1538  143.4757  164.4512 C.3     1  UNL1        0.0897
     13 C         144.5900  141.3115  164.3921 C.3     1  UNL1        0.0897
     14 O         141.0566  140.5954  164.8032 O.3     1  UNL1       -0.4511
     15 C         140.4643  139.3703  164.1719 C.2     1  UNL1        0.3171
     16 O         140.0916  139.2477  163.0219 O.2     1  UNL1       -0.2501
     17 C         138.9026  137.5800  165.2238 C.3     1  UNL1        0.0122
     18 C         140.2804  138.1225  164.9838 C.3     1  UNL1        0.1096
     19 C         139.2731  141.1805  165.7914 C.3     1  UNL1        0.0708
     20 C         138.9280  142.3176  164.8760 C.ar    1  UNL1       -0.0183
     21 C         138.0190  142.0885  163.7051 C.ar    1  UNL1       -0.0041
     22 C         137.6739  143.2256  162.7898 C.ar    1  UNL1       -0.0003
     23 C         138.2378  144.5919  163.0454 C.ar    1  UNL1       -0.0000
     24 C         139.1469  144.8210  164.2163 C.ar    1  UNL1       -0.0003
     25 C         139.4920  143.6839  165.1316 C.ar    1  UNL1       -0.0041
@<TRIPOS>BOND
     1    17    18    1
     2    18    15    1
     3    15    16    2
     4    15    14    1
     5    14     1    1
     6     1    19    1
     7    19    20    1
     8    20    21   ar
     9    21    22   ar
    10    22    23   ar
    11    23    24   ar
    12    24    25   ar
    13     1     2    1
    14     2     3   ar
    15     3     4   ar
    16     4     5   ar
    17     5     6   ar
    18     6     7   ar
    19     1     8    1
    20     8     9    1
    21     8    10    1
    22    10    11    1
    23    11    12    1
    24    11    13    1
    25    25    20   ar
    26     7     2   ar
@<TRIPOS>MOLECULE
*****
 25 26 0 0 0
SMALL
GASTEIGER

@<TRIPOS>ATOM
      1 C         140.5556  141.0376  165.1796 C.3     1  UNL1        0.1597
      2 C         142.0205  141.1736  164.8876 C.ar    1  UNL1        0.0140
      3 C         142.6782  142.5197  164.9611 C.ar    1  UNL1       -0.0009
      4 C         144.1432  142.6557  164.6691 C.ar    1  UNL1       -0.0002
      5 C         144.9506  141.4455  164.3036 C.ar    1  UNL1       -0.0000
      6 C         144.2930  140.0994  164.2301 C.ar    1  UNL1       -0.0002
      7 C         142.8280  139.9634  164.5221 C.ar    1  UNL1       -0.0009
      8 C         140.2335  141.6476  163.8475 C.3     1  UNL1        0.0570
      9 C         140.7275  141.3633  162.7745 C.3     1  UNL1        0.0054
     10 C         139.2010  142.7311  163.7488 C.3     1  UNL1        0.0760
     11 N         139.5316  144.1249  164.1938 N.3     1  UNL1       -0.2702
     12 C         138.8977  144.6872  165.4316 C.3     1  UNL1        0.0897
     13 C         140.4961  144.9564  163.4011 C.3     1  UNL1        0.0897
     14 O         139.0906  140.9016  165.4716 O.3     1  UNL1       -0.4511
     15 C         138.4415  139.5496  165.4382 C.2     1  UNL1        0.3171
     16 O         137.6583  139.0943  166.2480 O.2     1  UNL1       -0.2501
     17 C         139.7972  137.5486  164.4853 C.3     1  UNL1        0.0122
     18 C         138.7418  138.6010  164.3158 C.3     1  UNL1        0.1096
     19 C         140.8777  140.4276  166.5115 C.3     1  UNL1        0.0708
     20 C         140.4941  141.1395  167.7749 C.ar    1  UNL1       -0.0183
     21 C         140.8221  142.5932  167.9459 C.ar    1  UNL1       -0.0041
     22 C         140.4386  143.3050  169.2092 C.ar    1  UNL1       -0.0003
     23 C         139.7270  142.5632  170.3017 C.ar    1  UNL1       -0.0000
     24 C         139.3990  141.1096  170.1307 C.ar    1  UNL1       -0.0003
     25 C         139.7825  140.3977  168.8674 C.ar    1  UNL1       -0.0041
@<TRIPOS>BOND
     1    17    18    1
     2    18    15    1
     3    15    16    2
     4    15    14    1
     5    14     1    1
     6     1    19    1
     7    19    20    1
     8    20    21   ar
     9    21    22   ar
    10    22    23   ar
    11    23    24   ar
    12    24    25   ar
    13     1     2    1
    14     2     3   ar
    15     3     4   ar
    16     4     5   ar
    17     5     6   ar
    18     6     7   ar
    19     1     8    1
    20     8     9    1
    21     8    10    1
    22    10    11    1
    23    11    12    1
    24    11    13    1
    25    25    20   ar
    26     7     2   ar
@<TRIPOS>MOLECULE
*****
 25 26 0 0 0
SMALL
GASTEIGER

@<TRIPOS>ATOM
      1 C         140.8070  141.7736  165.1700 C.3     1  UNL1        0.1597
      2 C         142.2809  141.8202  164.8951 C.ar    1  UNL1        0.0140
      3 C         142.9779  140.6155  164.3358 C.ar    1  UNL1       -0.0009
      4 C         144.4518  140.6620  164.0609 C.ar    1  UNL1       -0.0002
      5 C         145.2286  141.9133  164.3453 C.ar    1  UNL1       -0.0000
      6 C         144.5316  143.1180  164.9047 C.ar    1  UNL1       -0.0002
      7 C         143.0578  143.0714  165.1796 C.ar    1  UNL1       -0.0009
      8 C         140.5526  142.6027  163.9460 C.3     1  UNL1        0.0570
      9 C         140.6693  142.2525  162.7885 C.3     1  UNL1        0.0054
     10 C         140.1031  144.0269  164.0850 C.3     1  UNL1        0.0760
     11 N         139.1306  144.6059  163.1007 N.3     1  UNL1       -0.2702
     12 C         137.6952  144.1707  163.1201 C.3     1  UNL1        0.0897
     13 C         139.5933  145.6200  162.0970 C.3     1  UNL1        0.0897
     14 O         139.3332  141.7271  165.4449 O.3     1  UNL1       -0.4511
     15 C         138.4932  140.6362  164.8495 C.2     1  UNL1        0.3171
     16 O         137.6563  140.7518  163.9763 O.2     1  UNL1       -0.2501
     17 C         137.8486  138.7436  166.5086 C.3     1  UNL1        0.0122
     18 C         138.6456  139.2242  165.3322 C.3     1  UNL1        0.1096
     19 C         141.0615  140.9447  166.3939 C.3     1  UNL1        0.0708
     20 C         140.6208  141.4393  167.7398 C.ar    1  UNL1       -0.0183
     21 C         139.9177  140.5121  168.6863 C.ar    1  UNL1       -0.0041
     22 C         139.4771  141.0068  170.0320 C.ar    1  UNL1       -0.0003
     23 C         139.7397  142.4286  170.4313 C.ar    1  UNL1       -0.0000
     24 C         140.4428  143.3558  169.4848 C.ar    1  UNL1       -0.0003
     25 C         140.8834  142.8611  168.1391 C.ar    1  UNL1       -0.0041
@<TRIPOS>BOND
     1    17    18    1
     2    18    15    1
     3    15    16    2
     4    15    14    1
     5    14     1    1
     6     1    19    1
     7    19    20    1
     8    20    21   ar
     9    21    22   ar
    10    22    23   ar
    11    23    24   ar
    12    24    25   ar
    13     1     2    1
    14     2     3   ar
    15     3     4   ar
    16     4     5   ar
    17     5     6   ar
    18     6     7   ar
    19     1     8    1
    20     8     9    1
    21     8    10    1
    22    10    11    1
    23    11    12    1
    24    11    13    1
    25    25    20   ar
    26     7     2   ar
@<TRIPOS>MOLECULE
*****
 25 26 0 0 0
SMALL
GASTEIGER

@<TRIPOS>ATOM
      1 C         141.3656  141.6417  166.2674 C.3     1  UNL1        0.1597
      2 C         140.5617  141.2332  167.4661 C.ar    1  UNL1        0.0140
      3 C         139.5782  140.1055  167.3608 C.ar    1  UNL1       -0.0009
      4 C         138.7743  139.6971  168.5596 C.ar    1  UNL1       -0.0002
      5 C         138.9540  140.4162  169.8636 C.ar    1  UNL1       -0.0000
      6 C         139.9375  141.5439  169.9689 C.ar    1  UNL1       -0.0002
      7 C         140.7414  141.9524  168.7702 C.ar    1  UNL1       -0.0009
      8 C         142.0653  140.3149  166.2846 C.3     1  UNL1        0.0570
      9 C         142.5381  139.7501  167.2508 C.3     1  UNL1        0.0054
     10 C         142.2389  139.5420  165.0109 C.3     1  UNL1        0.0760
     11 N         141.0504  138.9095  164.3496 N.3     1  UNL1       -0.2702
     12 C         140.5789  137.5555  164.7909 C.3     1  UNL1        0.0897
     13 C         140.3333  139.6307  163.2471 C.3     1  UNL1        0.0897
     14 O         142.1694  142.0502  165.0687 O.3     1  UNL1       -0.4511
     15 C         143.3942  142.8990  165.2407 C.2     1  UNL1        0.3171
     16 O         144.0512  143.0380  166.2533 O.2     1  UNL1       -0.2501
     17 C         143.5493  145.1346  163.9261 C.3     1  UNL1        0.0122
     18 C         143.9263  143.6912  164.0835 C.3     1  UNL1        0.1096
     19 C         140.6658  142.9683  166.2502 C.3     1  UNL1        0.0708
     20 C         139.7234  143.3048  165.1328 C.ar    1  UNL1       -0.0183
     21 C         139.9076  144.5725  164.3524 C.ar    1  UNL1       -0.0041
     22 C         138.9653  144.9089  163.2350 C.ar    1  UNL1       -0.0003
     23 C         137.8386  143.9777  162.8979 C.ar    1  UNL1       -0.0000
     24 C         137.6544  142.7101  163.6783 C.ar    1  UNL1       -0.0003
     25 C         138.5968  142.3736  164.7957 C.ar    1  UNL1       -0.0041
@<TRIPOS>BOND
     1    17    18    1
     2    18    15    1
     3    15    16    2
     4    15    14    1
     5    14     1    1
     6     1    19    1
     7    19    20    1
     8    20    21   ar
     9    21    22   ar
    10    22    23   ar
    11    23    24   ar
    12    24    25   ar
    13     1     2    1
    14     2     3   ar
    15     3     4   ar
    16     4     5   ar
    17     5     6   ar
    18     6     7   ar
    19     1     8    1
    20     8     9    1
    21     8    10    1
    22    10    11    1
    23    11    12    1
    24    11    13    1
    25    25    20   ar
    26     7     2   ar
@<TRIPOS>MOLECULE
*****
 25 26 0 0 0
SMALL
GASTEIGER

@<TRIPOS>ATOM
      1 C         140.7943  142.0927  165.1768 C.3     1  UNL1        0.1597
      2 C         141.0251  140.6186  165.0228 C.ar    1  UNL1        0.0140
      3 C         142.4239  140.0783  164.9855 C.ar    1  UNL1       -0.0009
      4 C         142.6546  138.6041  164.8316 C.ar    1  UNL1       -0.0002
      5 C         141.4866  137.6703  164.7149 C.ar    1  UNL1       -0.0000
      6 C         140.0878  138.2106  164.7522 C.ar    1  UNL1       -0.0002
      7 C         139.8570  139.6847  164.9062 C.ar    1  UNL1       -0.0009
      8 C         141.3608  142.3243  163.8072 C.3     1  UNL1        0.0570
      9 C         141.0597  141.7433  162.7835 C.3     1  UNL1        0.0054
     10 C         142.4168  143.3691  163.5992 C.3     1  UNL1        0.0760
     11 N         143.8477  143.0656  163.9310 N.3     1  UNL1       -0.2702
     12 C         144.7211  142.3765  162.9247 C.3     1  UNL1        0.0897
     13 C         144.4054  143.4511  165.2691 C.3     1  UNL1        0.0897
     14 O         140.5636  143.5668  165.3307 O.3     1  UNL1       -0.4511
     15 C         139.1678  144.1151  165.2955 C.2     1  UNL1        0.3171
     16 O         138.7411  145.0692  165.9152 O.2     1  UNL1       -0.2501
     17 C         137.9535  143.9243  163.0065 C.3     1  UNL1        0.0122
     18 C         138.1303  143.4700  164.4252 C.3     1  UNL1        0.1096
     19 C         140.2279  141.8610  166.5462 C.3     1  UNL1        0.0708
     20 C         140.9975  142.2930  167.7591 C.ar    1  UNL1       -0.0183
     21 C         142.4231  141.8614  167.9359 C.ar    1  UNL1       -0.0041
     22 C         143.1927  142.2934  169.1487 C.ar    1  UNL1       -0.0003
     23 C         142.5366  143.1571  170.1849 C.ar    1  UNL1       -0.0000
     24 C         141.1110  143.5888  170.0082 C.ar    1  UNL1       -0.0003
     25 C         140.3414  143.1567  168.7953 C.ar    1  UNL1       -0.0041
@<TRIPOS>BOND
     1    17    18    1
     2    18    15    1
     3    15    16    2
     4    15    14    1
     5    14     1    1
     6     1    19    1
     7    19    20    1
     8    20    21   ar
     9    21    22   ar
    10    22    23   ar
    11    23    24   ar
    12    24    25   ar
    13     1     2    1
    14     2     3   ar
    15     3     4   ar
    16     4     5   ar
    17     5     6   ar
    18     6     7   ar
    19     1     8    1
    20     8     9    1
    21     8    10    1
    22    10    11    1
    23    11    12    1
    24    11    13    1
    25    25    20   ar
    26     7     2   ar
