@<TRIPOS>MOLECULE
*****
 31 33 0 0 0
SMALL
GASTEIGER

@<TRIPOS>ATOM
      1 C         138.6613  141.8919  164.9343 C.3     1  UNL1        0.1688
      2 C         137.8379  141.9835  163.6838 C.3     1  UNL1        0.0609
      3 C         137.8798  143.2282  162.8477 C.3     1  UNL1        0.0758
      4 N         138.7452  144.3812  163.2620 N.3     1  UNL1       -0.2724
      5 C         139.5685  144.2896  164.5124 C.3     1  UNL1        0.0758
      6 C         139.5266  143.0450  165.3486 C.3     1  UNL1        0.0609
      7 O         138.6193  140.6473  165.7704 O.3     1  UNL1       -0.4776
      8 C         140.9590  140.0111  168.9122 C.ar    1  UNL1       -0.0191
      9 C         139.7683  140.4012  168.0875 C.ar    1  UNL1        0.0342
     10 C         139.8100  140.2572  166.5950 C.ar    1  UNL1        0.1555
     11 C         141.0425  139.7232  165.9272 C.ar    1  UNL1        0.1151
     12 N         141.0842  139.5793  164.4347 N.ar    1  UNL1       -0.2408
     13 C         142.3166  139.0453  163.7669 C.ar    1  UNL1        0.0989
     14 C         143.5073  138.6553  164.5916 C.ar    1  UNL1        0.0207
     15 C         143.4656  138.7992  166.0841 C.ar    1  UNL1        0.0032
     16 C         142.2332  139.3332  166.7518 C.ar    1  UNL1        0.0204
     17 C         142.1914  139.4772  168.2444 C.ar    1  UNL1       -0.0026
     18 C         140.9173  140.1551  170.4047 C.3     1  UNL1        0.0265
     19 C         141.8344  141.1238  171.0907 C.3     1  UNL1        0.0047
     20 C         143.6957  142.4135  169.8171 C.3     1  UNL1        0.0000
     21 C         142.3024  142.3528  170.3694 C.3     1  UNL1        0.0003
     22 C         138.7871  145.6258  162.4259 C.3     1  UNL1        0.0721
     23 C         140.0545  146.0159  161.7246 C.3     1  UNL1        0.0188
     24 C         140.7635  145.0245  160.8502 C.3     1  UNL1        0.0202
     25 C         141.9117  144.2290  161.3967 C.3     1  UNL1        0.0911
     26 N         143.0985  144.9324  161.9858 N.3     1  UNL1       -0.1833
     27 H         142.8387  145.9135  162.0874 H       1  UNL1        0.1484
     28 S         143.6511  144.4916  163.3087 S.O2    1  UNL1        0.0426
     29 C         144.2037  144.0507  164.6317 C.3     1  UNL1        0.1957
     30 O         142.7025  145.4159  164.0129 O.2     1  UNL1       -0.1575
     31 O         144.5996  143.5673  162.6045 O.2     1  UNL1       -0.1575
@<TRIPOS>BOND
     1    20    21    1
     2    21    19    1
     3    19    18    1
     4    18     8    1
     5     8     9   ar
     6     9    10   ar
     7    10     7    1
     8     7     1    1
     9     1     2    1
    10     2     3    1
    11     3     4    1
    12     4    22    1
    13    22    23    1
    14    23    24    1
    15    24    25    1
    16    25    26    1
    17    26    28    1
    18    28    29    1
    19    28    30    2
    20    28    31    2
    21     4     5    1
    22     5     6    1
    23    10    11   ar
    24    11    12   ar
    25    12    13   ar
    26    13    14   ar
    27    14    15   ar
    28    15    16   ar
    29    16    17   ar
    30    17     8   ar
    31     6     1    1
    32    16    11   ar
    33    26    27    1
@<TRIPOS>MOLECULE
*****
 31 33 0 0 0
SMALL
GASTEIGER

@<TRIPOS>ATOM
      1 C         140.9084  138.5291  165.0549 C.3     1  UNL1        0.1688
      2 C         139.6095  139.2756  165.1299 C.3     1  UNL1        0.0609
      3 C         138.6036  139.1435  164.0251 C.3     1  UNL1        0.0758
      4 N         138.8966  138.2647  162.8452 N.3     1  UNL1       -0.2724
      5 C         140.1954  137.5182  162.7702 C.3     1  UNL1        0.0758
      6 C         141.2014  137.6504  163.8751 C.3     1  UNL1        0.0609
      7 O         141.9143  138.6612  166.1598 O.3     1  UNL1       -0.4776
      8 C         143.7283  142.1718  165.7918 C.ar    1  UNL1       -0.0191
      9 C         143.1640  140.8251  165.4484 C.ar    1  UNL1        0.0342
     10 C         142.4786  140.0080  166.5032 C.ar    1  UNL1        0.1555
     11 C         142.3575  140.5375  167.9014 C.ar    1  UNL1        0.1151
     12 N         141.6721  139.7204  168.9561 N.ar    1  UNL1       -0.2408
     13 C         141.5511  140.2500  170.3543 C.ar    1  UNL1        0.0989
     14 C         142.1154  141.5967  170.6976 C.ar    1  UNL1        0.0207
     15 C         142.8007  142.4139  169.6429 C.ar    1  UNL1        0.0032
     16 C         142.9218  141.8843  168.2448 C.ar    1  UNL1        0.0204
     17 C         143.6072  142.7014  167.1899 C.ar    1  UNL1       -0.0026
     18 C         144.4137  142.9889  164.7370 C.3     1  UNL1        0.0265
     19 C         144.0333  144.4260  164.5365 C.3     1  UNL1        0.0047
     20 C         141.8069  145.4126  163.6314 C.3     1  UNL1        0.0000
     21 C         143.1604  144.8166  163.3810 C.3     1  UNL1        0.0003
     22 C         137.8907  138.1326  161.7404 C.3     1  UNL1        0.0721
     23 C         137.4168  139.3527  161.0076 C.3     1  UNL1        0.0188
     24 C         138.3978  140.4126  160.6027 C.3     1  UNL1        0.0202
     25 C         138.2003  141.8292  161.0545 C.3     1  UNL1        0.0911
     26 N         137.4375  142.1154  162.3140 N.3     1  UNL1       -0.1833
     27 H         137.4853  141.2718  162.8853 H       1  UNL1        0.1484
     28 S         137.8461  143.2586  163.1950 S.O2    1  UNL1        0.0426
     29 C         138.2547  144.4019  164.0759 C.3     1  UNL1        0.1957
     30 O         137.5487  142.4294  164.4090 O.2     1  UNL1       -0.1575
     31 O         138.1435  144.0878  161.9809 O.2     1  UNL1       -0.1575
@<TRIPOS>BOND
     1    20    21    1
     2    21    19    1
     3    19    18    1
     4    18     8    1
     5     8     9   ar
     6     9    10   ar
     7    10     7    1
     8     7     1    1
     9     1     2    1
    10     2     3    1
    11     3     4    1
    12     4    22    1
    13    22    23    1
    14    23    24    1
    15    24    25    1
    16    25    26    1
    17    26    28    1
    18    28    29    1
    19    28    30    2
    20    28    31    2
    21     4     5    1
    22     5     6    1
    23    10    11   ar
    24    11    12   ar
    25    12    13   ar
    26    13    14   ar
    27    14    15   ar
    28    15    16   ar
    29    16    17   ar
    30    17     8   ar
    31     6     1    1
    32    16    11   ar
    33    26    27    1
@<TRIPOS>MOLECULE
*****
 31 33 0 0 0
SMALL
GASTEIGER

@<TRIPOS>ATOM
      1 C         142.4004  142.8197  164.5711 C.3     1  UNL1        0.1688
      2 C         141.6844  144.1238  164.3793 C.3     1  UNL1        0.0609
      3 C         141.4404  144.6491  162.9957 C.3     1  UNL1        0.0758
      4 N         141.9125  143.8704  161.8038 N.3     1  UNL1       -0.2724
      5 C         142.6285  142.5663  161.9954 C.3     1  UNL1        0.0758
      6 C         142.8725  142.0409  163.3791 C.3     1  UNL1        0.0609
      7 O         142.6444  142.2943  165.9547 O.3     1  UNL1       -0.4776
      8 C         139.4401  140.0612  166.6585 C.ar    1  UNL1       -0.0191
      9 C         140.5339  140.7794  165.9252 C.ar    1  UNL1        0.0342
     10 C         141.5505  141.5761  166.6879 C.ar    1  UNL1        0.1555
     11 C         141.4734  141.6545  168.1840 C.ar    1  UNL1        0.1151
     12 N         142.4901  142.4511  168.9466 N.ar    1  UNL1       -0.2408
     13 C         142.4129  142.5294  170.4426 C.ar    1  UNL1        0.0989
     14 C         141.3191  141.8112  171.1758 C.ar    1  UNL1        0.0207
     15 C         140.3024  141.0145  170.4131 C.ar    1  UNL1        0.0032
     16 C         140.3796  140.9362  168.9172 C.ar    1  UNL1        0.0204
     17 C         139.3629  140.1395  168.1544 C.ar    1  UNL1       -0.0026
     18 C         138.4234  139.2645  165.8957 C.3     1  UNL1        0.0265
     19 C         138.7523  137.8764  165.4321 C.3     1  UNL1        0.0047
     20 C         141.0532  137.1568  164.4635 C.3     1  UNL1        0.0000
     21 C         139.6607  137.6742  164.2557 C.3     1  UNL1        0.0003
     22 C         141.6685  144.3957  160.4201 C.3     1  UNL1        0.0721
     23 C         140.2676  144.5024  159.8946 C.3     1  UNL1        0.0188
     24 C         139.4547  143.2622  159.6689 C.3     1  UNL1        0.0202
     25 C         138.8538  142.5367  160.8362 C.3     1  UNL1        0.0911
     26 N         137.6662  143.1142  161.5477 N.3     1  UNL1       -0.1833
     27 H         136.9271  142.4126  161.5043 H       1  UNL1        0.1484
     28 S         137.7825  143.5324  162.9834 S.O2    1  UNL1        0.0426
     29 C         137.8987  143.9507  164.4193 C.3     1  UNL1        0.1957
     30 O         137.9968  144.9530  162.5523 O.2     1  UNL1       -0.1575
     31 O         137.5682  142.1119  163.4146 O.2     1  UNL1       -0.1575
@<TRIPOS>BOND
     1    20    21    1
     2    21    19    1
     3    19    18    1
     4    18     8    1
     5     8     9   ar
     6     9    10   ar
     7    10     7    1
     8     7     1    1
     9     1     2    1
    10     2     3    1
    11     3     4    1
    12     4    22    1
    13    22    23    1
    14    23    24    1
    15    24    25    1
    16    25    26    1
    17    26    28    1
    18    28    29    1
    19    28    30    2
    20    28    31    2
    21     4     5    1
    22     5     6    1
    23    10    11   ar
    24    11    12   ar
    25    12    13   ar
    26    13    14   ar
    27    14    15   ar
    28    15    16   ar
    29    16    17   ar
    30    17     8   ar
    31     6     1    1
    32    16    11   ar
    33    26    27    1
@<TRIPOS>MOLECULE
*****
 31 33 0 0 0
SMALL
GASTEIGER

@<TRIPOS>ATOM
      1 C         140.9521  138.5079  164.7449 C.3     1  UNL1        0.1688
      2 C         141.0939  137.7385  163.4650 C.3     1  UNL1        0.0609
      3 C         139.9904  137.7624  162.4493 C.3     1  UNL1        0.0758
      4 N         138.7451  138.5558  162.7134 N.3     1  UNL1       -0.2724
      5 C         138.6033  139.3252  163.9931 C.3     1  UNL1        0.0758
      6 C         139.7068  139.3013  165.0089 C.3     1  UNL1        0.0609
      7 O         142.0556  138.4840  165.7606 O.3     1  UNL1       -0.4776
      8 C         142.6345  141.1337  168.6577 C.ar    1  UNL1       -0.0191
      9 C         142.2400  139.8719  167.9490 C.ar    1  UNL1        0.0342
     10 C         142.4502  139.7457  166.4692 C.ar    1  UNL1        0.1555
     11 C         143.0550  140.8813  165.6981 C.ar    1  UNL1        0.1151
     12 N         143.2652  140.7551  164.2183 N.ar    1  UNL1       -0.2408
     13 C         143.8700  141.8907  163.4472 C.ar    1  UNL1        0.0989
     14 C         144.2646  143.1525  164.1558 C.ar    1  UNL1        0.0207
     15 C         144.0544  143.2787  165.6356 C.ar    1  UNL1        0.0032
     16 C         143.4496  142.1431  166.4067 C.ar    1  UNL1        0.0204
     17 C         143.2393  142.2693  167.8866 C.ar    1  UNL1       -0.0026
     18 C         142.4243  141.2599  170.1376 C.3     1  UNL1        0.0265
     19 C         141.0489  141.5111  170.6810 C.3     1  UNL1        0.0047
     20 C         140.3954  143.8776  169.8308 C.3     1  UNL1        0.0000
     21 C         140.1032  142.4105  169.9416 C.3     1  UNL1        0.0003
     22 C         137.6416  138.5797  161.6977 C.3     1  UNL1        0.0721
     23 C         137.5288  139.7285  160.7397 C.3     1  UNL1        0.0188
     24 C         138.5609  140.8169  160.7490 C.3     1  UNL1        0.0202
     25 C         138.2437  142.1460  161.3678 C.3     1  UNL1        0.0911
     26 N         139.2167  142.7838  162.3147 N.3     1  UNL1       -0.1833
     27 H         139.7928  143.4184  161.7617 H       1  UNL1        0.1484
     28 S         138.7146  143.5682  163.4904 S.O2    1  UNL1        0.0426
     29 C         138.2124  144.3528  164.6662 C.3     1  UNL1        0.1957
     30 O         139.6930  142.8606  164.3804 O.2     1  UNL1       -0.1575
     31 O         137.7362  144.2759  162.6005 O.2     1  UNL1       -0.1575
@<TRIPOS>BOND
     1    20    21    1
     2    21    19    1
     3    19    18    1
     4    18     8    1
     5     8     9   ar
     6     9    10   ar
     7    10     7    1
     8     7     1    1
     9     1     2    1
    10     2     3    1
    11     3     4    1
    12     4    22    1
    13    22    23    1
    14    23    24    1
    15    24    25    1
    16    25    26    1
    17    26    28    1
    18    28    29    1
    19    28    30    2
    20    28    31    2
    21     4     5    1
    22     5     6    1
    23    10    11   ar
    24    11    12   ar
    25    12    13   ar
    26    13    14   ar
    27    14    15   ar
    28    15    16   ar
    29    16    17   ar
    30    17     8   ar
    31     6     1    1
    32    16    11   ar
    33    26    27    1
@<TRIPOS>MOLECULE
*****
 31 33 0 0 0
SMALL
GASTEIGER

@<TRIPOS>ATOM
      1 C         143.7617  140.1768  164.9575 C.3     1  UNL1        0.1688
      2 C         143.8330  141.6748  164.9890 C.3     1  UNL1        0.0609
      3 C         144.2288  142.4329  163.7567 C.3     1  UNL1        0.0758
      4 N         144.5534  141.6930  162.4928 N.3     1  UNL1       -0.2724
      5 C         144.4821  140.1951  162.4613 C.3     1  UNL1        0.0758
      6 C         144.0863  139.4369  163.6936 C.3     1  UNL1        0.0609
      7 O         143.3659  139.4187  166.1898 O.3     1  UNL1       -0.4776
      8 C         139.4063  139.5303  166.4323 C.ar    1  UNL1       -0.0191
      9 C         140.7880  139.3772  165.8690 C.ar    1  UNL1        0.0342
     10 C         141.9841  139.5718  166.7530 C.ar    1  UNL1        0.1555
     11 C         141.7984  139.9195  168.2004 C.ar    1  UNL1        0.1151
     12 N         142.9945  140.1141  169.0844 N.ar    1  UNL1       -0.2408
     13 C         142.8088  140.4618  170.5316 C.ar    1  UNL1        0.0989
     14 C         141.4270  140.6149  171.0949 C.ar    1  UNL1        0.0207
     15 C         140.2310  140.4203  170.2109 C.ar    1  UNL1        0.0032
     16 C         140.4167  140.0726  168.7636 C.ar    1  UNL1        0.0204
     17 C         139.2206  139.8780  167.8795 C.ar    1  UNL1       -0.0026
     18 C         138.2101  139.3357  165.5482 C.3     1  UNL1        0.0265
     19 C         138.1743  139.9630  164.1861 C.3     1  UNL1        0.0047
     20 C         138.8588  137.6981  163.1129 C.3     1  UNL1        0.0000
     21 C         138.4105  139.1221  162.9667 C.3     1  UNL1        0.0003
     22 C         144.9492  142.4511  161.2605 C.3     1  UNL1        0.0721
     23 C         144.1663  142.2822  159.9922 C.3     1  UNL1        0.0188
     24 C         143.1316  143.2982  159.6086 C.3     1  UNL1        0.0202
     25 C         142.0270  143.6411  160.5636 C.3     1  UNL1        0.0911
     26 N         142.2108  144.7511  161.5557 N.3     1  UNL1       -0.1833
     27 H         142.0498  145.6243  161.0538 H       1  UNL1        0.1484
     28 S         141.3632  144.7998  162.7923 S.O2    1  UNL1        0.0426
     29 C         140.5155  144.8484  164.0289 C.3     1  UNL1        0.1957
     30 O         142.4975  145.4295  163.5450 O.2     1  UNL1       -0.1575
     31 O         140.2289  144.1700  162.0396 O.2     1  UNL1       -0.1575
@<TRIPOS>BOND
     1    20    21    1
     2    21    19    1
     3    19    18    1
     4    18     8    1
     5     8     9   ar
     6     9    10   ar
     7    10     7    1
     8     7     1    1
     9     1     2    1
    10     2     3    1
    11     3     4    1
    12     4    22    1
    13    22    23    1
    14    23    24    1
    15    24    25    1
    16    25    26    1
    17    26    28    1
    18    28    29    1
    19    28    30    2
    20    28    31    2
    21     4     5    1
    22     5     6    1
    23    10    11   ar
    24    11    12   ar
    25    12    13   ar
    26    13    14   ar
    27    14    15   ar
    28    15    16   ar
    29    16    17   ar
    30    17     8   ar
    31     6     1    1
    32    16    11   ar
    33    26    27    1
@<TRIPOS>MOLECULE
*****
 31 33 0 0 0
SMALL
GASTEIGER

@<TRIPOS>ATOM
      1 C         139.0680  139.2722  164.9995 C.3     1  UNL1        0.1688
      2 C         139.3367  138.1578  164.0319 C.3     1  UNL1        0.0609
      3 C         138.7868  138.2259  162.6380 C.3     1  UNL1        0.0758
      4 N         137.9683  139.4084  162.2116 N.3     1  UNL1       -0.2724
      5 C         137.6996  140.5227  163.1791 C.3     1  UNL1        0.0758
      6 C         138.2494  140.4546  164.5730 C.3     1  UNL1        0.0609
      7 O         139.6178  139.2041  166.3934 O.3     1  UNL1       -0.4776
      8 C         142.7710  141.6038  166.1733 C.ar    1  UNL1       -0.0191
      9 C         141.6506  140.6945  165.7638 C.ar    1  UNL1        0.0342
     10 C         140.7382  140.1134  166.8029 C.ar    1  UNL1        0.1555
     11 C         140.9463  140.4417  168.2518 C.ar    1  UNL1        0.1151
     12 N         140.0339  139.8607  169.2909 N.ar    1  UNL1       -0.2408
     13 C         140.2420  140.1890  170.7397 C.ar    1  UNL1        0.0989
     14 C         141.3624  141.0983  171.1492 C.ar    1  UNL1        0.0207
     15 C         142.2748  141.6793  170.1101 C.ar    1  UNL1        0.0032
     16 C         142.0667  141.3511  168.6613 C.ar    1  UNL1        0.0204
     17 C         142.9791  141.9321  167.6221 C.ar    1  UNL1       -0.0026
     18 C         143.6834  142.1849  165.1341 C.3     1  UNL1        0.0265
     19 C         144.4045  143.4721  165.4043 C.3     1  UNL1        0.0047
     20 C         143.2333  144.5923  163.3737 C.3     1  UNL1        0.0000
     21 C         144.0599  144.7037  164.6204 C.3     1  UNL1        0.0003
     22 C         137.4185  139.4765  160.8177 C.3     1  UNL1        0.0721
     23 C         138.3082  139.8798  159.6793 C.3     1  UNL1        0.0188
     24 C         138.4691  141.3297  159.3305 C.3     1  UNL1        0.0202
     25 C         139.1603  142.2583  160.2844 C.3     1  UNL1        0.0911
     26 N         138.3682  143.2856  161.0377 N.3     1  UNL1       -0.1833
     27 H         137.5137  142.8259  161.3524 H       1  UNL1        0.1484
     28 S         138.9640  143.9603  162.2375 S.O2    1  UNL1        0.0426
     29 C         139.5599  144.6350  163.4374 C.3     1  UNL1        0.1957
     30 O         137.6154  144.5086  162.5989 O.2     1  UNL1       -0.1575
     31 O         140.3126  143.4120  161.8762 O.2     1  UNL1       -0.1575
@<TRIPOS>BOND
     1    20    21    1
     2    21    19    1
     3    19    18    1
     4    18     8    1
     5     8     9   ar
     6     9    10   ar
     7    10     7    1
     8     7     1    1
     9     1     2    1
    10     2     3    1
    11     3     4    1
    12     4    22    1
    13    22    23    1
    14    23    24    1
    15    24    25    1
    16    25    26    1
    17    26    28    1
    18    28    29    1
    19    28    30    2
    20    28    31    2
    21     4     5    1
    22     5     6    1
    23    10    11   ar
    24    11    12   ar
    25    12    13   ar
    26    13    14   ar
    27    14    15   ar
    28    15    16   ar
    29    16    17   ar
    30    17     8   ar
    31     6     1    1
    32    16    11   ar
    33    26    27    1
@<TRIPOS>MOLECULE
*****
 31 33 0 0 0
SMALL
GASTEIGER

@<TRIPOS>ATOM
      1 C         138.8192  139.6336  164.9161 C.3     1  UNL1        0.1688
      2 C         138.0175  140.7940  164.4052 C.3     1  UNL1        0.0609
      3 C         137.5463  140.8110  162.9813 C.3     1  UNL1        0.0758
      4 N         137.8768  139.6678  162.0682 N.3     1  UNL1       -0.2724
      5 C         138.6785  138.5075  162.5790 C.3     1  UNL1        0.0758
      6 C         139.1497  138.4904  164.0030 C.3     1  UNL1        0.0609
      7 O         139.2904  139.6166  166.3400 O.3     1  UNL1       -0.4776
      8 C         142.4341  142.0298  166.1314 C.ar    1  UNL1       -0.0191
      9 C         141.2679  141.1823  165.7171 C.ar    1  UNL1        0.0342
     10 C         140.4566  140.4641  166.7544 C.ar    1  UNL1        0.1555
     11 C         140.8115  140.5936  168.2061 C.ar    1  UNL1        0.1151
     12 N         140.0002  139.8754  169.2434 N.ar    1  UNL1       -0.2408
     13 C         140.3551  140.0049  170.6950 C.ar    1  UNL1        0.0989
     14 C         141.5213  140.8524  171.1093 C.ar    1  UNL1        0.0207
     15 C         142.3326  141.5705  170.0720 C.ar    1  UNL1        0.0032
     16 C         141.9777  141.4411  168.6204 C.ar    1  UNL1        0.0204
     17 C         142.7890  142.1593  167.5830 C.ar    1  UNL1       -0.0026
     18 C         143.2454  142.7480  165.0940 C.3     1  UNL1        0.0265
     19 C         144.6335  142.2800  164.7712 C.3     1  UNL1        0.0047
     20 C         144.7937  140.6669  162.7409 C.3     1  UNL1        0.0000
     21 C         144.8514  140.9016  164.2213 C.3     1  UNL1        0.0003
     22 C         137.4056  139.6849  160.6442 C.3     1  UNL1        0.0721
     23 C         138.2787  140.2667  159.5722 C.3     1  UNL1        0.0188
     24 C         138.4037  141.7549  159.4323 C.3     1  UNL1        0.0202
     25 C         139.3964  142.5061  160.2690 C.3     1  UNL1        0.0911
     26 N         139.0336  143.8435  160.8434 N.3     1  UNL1       -0.1833
     27 H         138.0339  143.9703  160.6855 H       1  UNL1        0.1484
     28 S         139.2824  144.1289  162.2948 S.O2    1  UNL1        0.0426
     29 C         139.5313  144.4143  163.7462 C.3     1  UNL1        0.1957
     30 O         137.8326  144.4679  162.4766 O.2     1  UNL1       -0.1575
     31 O         140.7322  143.7898  162.1129 O.2     1  UNL1       -0.1575
@<TRIPOS>BOND
     1    20    21    1
     2    21    19    1
     3    19    18    1
     4    18     8    1
     5     8     9   ar
     6     9    10   ar
     7    10     7    1
     8     7     1    1
     9     1     2    1
    10     2     3    1
    11     3     4    1
    12     4    22    1
    13    22    23    1
    14    23    24    1
    15    24    25    1
    16    25    26    1
    17    26    28    1
    18    28    29    1
    19    28    30    2
    20    28    31    2
    21     4     5    1
    22     5     6    1
    23    10    11   ar
    24    11    12   ar
    25    12    13   ar
    26    13    14   ar
    27    14    15   ar
    28    15    16   ar
    29    16    17   ar
    30    17     8   ar
    31     6     1    1
    32    16    11   ar
    33    26    27    1
@<TRIPOS>MOLECULE
*****
 31 33 0 0 0
SMALL
GASTEIGER

@<TRIPOS>ATOM
      1 C         138.8721  143.5779  161.7873 C.3     1  UNL1        0.1688
      2 C         139.5684  144.8785  162.0588 C.3     1  UNL1        0.0609
      3 C         140.4097  145.5157  160.9929 C.3     1  UNL1        0.0758
      4 N         140.5547  144.8523  159.6554 N.3     1  UNL1       -0.2724
      5 C         139.8585  143.5518  159.3838 C.3     1  UNL1        0.0758
      6 C         139.0172  142.9146  160.4498 C.3     1  UNL1        0.0609
      7 O         138.0309  142.9408  162.8532 O.3     1  UNL1       -0.4776
      8 C         139.9153  141.8200  166.1612 C.ar    1  UNL1       -0.0191
      9 C         139.2749  142.6896  165.1201 C.ar    1  UNL1        0.0342
     10 C         138.6712  142.0712  163.8942 C.ar    1  UNL1        0.1555
     11 C         138.7078  140.5830  163.7092 C.ar    1  UNL1        0.1151
     12 N         138.1041  139.9645  162.4833 N.ar    1  UNL1       -0.2408
     13 C         138.1408  138.4765  162.2984 C.ar    1  UNL1        0.0989
     14 C         138.7811  137.6069  163.3394 C.ar    1  UNL1        0.0207
     15 C         139.3848  138.2253  164.5653 C.ar    1  UNL1        0.0032
     16 C         139.3482  139.7134  164.7502 C.ar    1  UNL1        0.0204
     17 C         139.9519  140.3319  165.9762 C.ar    1  UNL1       -0.0026
     18 C         140.5191  142.4385  167.3872 C.3     1  UNL1        0.0265
     19 C         140.3376  141.7838  168.7245 C.3     1  UNL1        0.0047
     20 C         140.3921  144.0666  169.9637 C.3     1  UNL1        0.0000
     21 C         140.0115  142.6161  169.9289 C.3     1  UNL1        0.0003
     22 C         141.3960  145.4895  158.5895 C.3     1  UNL1        0.0721
     23 C         140.8282  145.7122  157.2190 C.3     1  UNL1        0.0188
     24 C         139.6144  146.5752  157.0412 C.3     1  UNL1        0.0202
     25 C         139.4964  147.4651  155.8395 C.3     1  UNL1        0.0911
     26 N         138.3652  148.4452  155.7402 N.3     1  UNL1       -0.1833
     27 H         137.7149  148.2217  156.4935 H       1  UNL1        0.1484
     28 S         138.6386  149.9175  155.8267 S.O2    1  UNL1        0.0426
     29 C         138.9121  151.3899  155.9134 C.3     1  UNL1        0.1957
     30 O         139.1984  149.8954  154.4353 O.2     1  UNL1       -0.1575
     31 O         138.0789  149.9396  157.2182 O.2     1  UNL1       -0.1575
@<TRIPOS>BOND
     1    20    21    1
     2    21    19    1
     3    19    18    1
     4    18     8    1
     5     8     9   ar
     6     9    10   ar
     7    10     7    1
     8     7     1    1
     9     1     2    1
    10     2     3    1
    11     3     4    1
    12     4    22    1
    13    22    23    1
    14    23    24    1
    15    24    25    1
    16    25    26    1
    17    26    28    1
    18    28    29    1
    19    28    30    2
    20    28    31    2
    21     4     5    1
    22     5     6    1
    23    10    11   ar
    24    11    12   ar
    25    12    13   ar
    26    13    14   ar
    27    14    15   ar
    28    15    16   ar
    29    16    17   ar
    30    17     8   ar
    31     6     1    1
    32    16    11   ar
    33    26    27    1
@<TRIPOS>MOLECULE
*****
 31 33 0 0 0
SMALL
GASTEIGER

@<TRIPOS>ATOM
      1 C         138.9292  141.8605  165.0230 C.3     1  UNL1        0.1688
      2 C         139.6134  143.1166  165.4749 C.3     1  UNL1        0.0609
      3 C         139.5602  144.3485  164.6208 C.3     1  UNL1        0.0758
      4 N         138.8228  144.3244  163.3148 N.3     1  UNL1       -0.2724
      5 C         138.1385  143.0684  162.8629 C.3     1  UNL1        0.0758
      6 C         138.1917  141.8364  163.7171 C.3     1  UNL1        0.0609
      7 O         138.9824  140.6286  165.8771 O.3     1  UNL1       -0.4776
      8 C         142.6796  139.1885  165.9573 C.ar    1  UNL1       -0.0191
      9 C         141.3628  139.6848  165.4380 C.ar    1  UNL1        0.0342
     10 C         140.2992  140.1322  166.3964 C.ar    1  UNL1        0.1555
     11 C         140.5523  140.0833  167.8741 C.ar    1  UNL1        0.1151
     12 N         139.4887  140.5307  168.8325 N.ar    1  UNL1       -0.2408
     13 C         139.7419  140.4817  170.3101 C.ar    1  UNL1        0.0989
     14 C         141.0587  139.9854  170.8294 C.ar    1  UNL1        0.0207
     15 C         142.1224  139.5380  169.8710 C.ar    1  UNL1        0.0032
     16 C         141.8692  139.5869  168.3934 C.ar    1  UNL1        0.0204
     17 C         142.9328  139.1395  167.4349 C.ar    1  UNL1       -0.0026
     18 C         143.7432  138.7411  164.9988 C.3     1  UNL1        0.0265
     19 C         143.7446  139.2515  163.5884 C.3     1  UNL1        0.0047
     20 C         145.5448  141.0882  163.9576 C.3     1  UNL1        0.0000
     21 C         144.2901  140.6154  163.2849 C.3     1  UNL1        0.0003
     22 C         138.7696  145.5563  162.4607 C.3     1  UNL1        0.0721
     23 C         140.0233  146.0869  161.8307 C.3     1  UNL1        0.0188
     24 C         141.1089  145.1415  161.4091 C.3     1  UNL1        0.0202
     25 C         141.2349  144.7382  159.9698 C.3     1  UNL1        0.0911
     26 N         141.8755  145.6691  158.9834 N.3     1  UNL1       -0.1833
     27 H         142.8378  145.3533  158.8626 H       1  UNL1        0.1484
     28 S         141.2940  145.8215  157.6091 S.O2    1  UNL1        0.0426
     29 C         140.7126  145.9739  156.2347 C.3     1  UNL1        0.1957
     30 O         139.9663  146.1761  158.2102 O.2     1  UNL1       -0.1575
     31 O         142.6218  145.4670  157.0080 O.2     1  UNL1       -0.1575
@<TRIPOS>BOND
     1    20    21    1
     2    21    19    1
     3    19    18    1
     4    18     8    1
     5     8     9   ar
     6     9    10   ar
     7    10     7    1
     8     7     1    1
     9     1     2    1
    10     2     3    1
    11     3     4    1
    12     4    22    1
    13    22    23    1
    14    23    24    1
    15    24    25    1
    16    25    26    1
    17    26    28    1
    18    28    29    1
    19    28    30    2
    20    28    31    2
    21     4     5    1
    22     5     6    1
    23    10    11   ar
    24    11    12   ar
    25    12    13   ar
    26    13    14   ar
    27    14    15   ar
    28    15    16   ar
    29    16    17   ar
    30    17     8   ar
    31     6     1    1
    32    16    11   ar
    33    26    27    1
