@<TRIPOS>MOLECULE
*****
 35 39 0 0 0
SMALL
GASTEIGER

@<TRIPOS>ATOM
      1 C         142.0597  139.2757  160.6354 C.2     1  UNL1        0.0033
      2 C         140.9929  138.9781  161.6470 C.2     1  UNL1        0.0641
      3 C         139.7717  138.2059  161.2442 C.3     1  UNL1        0.0383
      4 C         138.7050  137.9084  162.2558 C.3     1  UNL1        0.0557
      5 C         138.8594  138.3830  163.6703 C.3     1  UNL1        0.2028
      6 N         140.0806  139.1552  164.0732 N.pl3   1  UNL1       -0.1873
      7 C         141.1473  139.4528  163.0615 C.2     1  UNL1        0.3653
      8 N         142.3686  140.2250  163.4644 N.2     1  UNL1        0.1549
      9 O         142.5231  140.6997  164.8789 O.2     1  UNL1       -0.2751
     10 C         141.4562  140.4021  165.8906 C.3     1  UNL1        0.2886
     11 C         140.2351  139.6299  165.4877 C.3     1  UNL1        0.2096
     12 C         139.1683  139.3324  166.4994 C.3     1  UNL1        0.0552
     13 C         141.6107  140.8768  167.3051 C.ar    1  UNL1        0.0310
     14 C         142.3325  140.0255  168.3072 C.ar    1  UNL1        0.0316
     15 C         142.4869  140.5002  169.7218 C.ar    1  UNL1        0.1694
     16 F         143.2087  139.6490  170.7239 F       1  UNL1       -0.2017
     17 C         141.9196  141.8261  170.1341 C.ar    1  UNL1        0.1946
     18 F         142.0740  142.3008  171.5486 F       1  UNL1       -0.1994
     19 C         141.1978  142.6774  169.1319 C.ar    1  UNL1        0.1694
     20 F         140.6304  144.0033  169.5443 F       1  UNL1       -0.2017
     21 C         141.0433  142.2028  167.7174 C.ar    1  UNL1        0.0316
     22 C         142.5830  137.1842  157.3034 C.ar    1  UNL1        0.1547
     23 C         142.7374  137.6589  158.7179 C.ar    1  UNL1        0.0384
     24 C         141.9053  138.8010  159.2209 C.ar    1  UNL1        0.0030
     25 C         140.9186  139.4686  158.3093 C.ar    1  UNL1        0.0017
     26 C         140.7642  138.9939  156.8947 C.ar    1  UNL1        0.0206
     27 C         141.5964  137.8517  156.3918 C.ar    1  UNL1        0.0994
     28 N         141.4419  137.3770  154.9773 N.ar    1  UNL1       -0.2839
     29 C         142.3891  137.6511  153.8470 C.ar    1  UNL1        0.1826
     30 N         141.8458  136.9884  152.6158 N.ar    1  UNL1       -0.2280
     31 C         140.5628  136.3048  152.9853 C.ar    1  UNL1        0.0786
     32 C         139.6837  135.5189  152.0582 C.3     1  UNL1        0.0538
     33 C         140.3132  136.5450  154.4448 C.ar    1  UNL1        0.0963
     34 C         142.8651  134.6467  156.8221 C.3     1  UNL1        0.2525
     35 O         143.4152  136.0420  156.8005 O.3     1  UNL1       -0.4700
@<TRIPOS>BOND
     1    34    35    1
     2    35    22    1
     3    22    23   ar
     4    23    24   ar
     5    24     1    1
     6     1     2    2
     7     2     3    1
     8     3     4    1
     9     4     5    1
    10     5     6    1
    11     6     7    1
    12     7     8    2
    13     8     9    1
    14     9    10    1
    15    10    13    1
    16    13    14   ar
    17    14    15   ar
    18    15    16    1
    19    15    17   ar
    20    17    18    1
    21    17    19   ar
    22    19    20    1
    23    19    21   ar
    24    10    11    1
    25    11    12    1
    26    24    25   ar
    27    25    26   ar
    28    26    27   ar
    29    27    28    1
    30    28    29   ar
    31    29    30   ar
    32    30    31   ar
    33    31    32    1
    34    31    33   ar
    35    27    22   ar
    36    33    28   ar
    37     7     2    1
    38    21    13   ar
    39    11     6    1
@<TRIPOS>MOLECULE
*****
 35 39 0 0 0
SMALL
GASTEIGER

@<TRIPOS>ATOM
      1 C         141.8798  139.1466  160.9946 C.2     1  UNL1        0.0033
      2 C         140.8573  138.8589  162.0539 C.2     1  UNL1        0.0641
      3 C         139.6409  138.0467  161.7213 C.3     1  UNL1        0.0383
      4 C         138.6186  137.7591  162.7806 C.3     1  UNL1        0.0557
      5 C         138.8127  138.2836  164.1724 C.3     1  UNL1        0.2028
      6 N         140.0291  139.0958  164.5050 N.pl3   1  UNL1       -0.1873
      7 C         141.0515  139.3834  163.4457 C.2     1  UNL1        0.3653
      8 N         142.2680  140.1956  163.7782 N.2     1  UNL1        0.1549
      9 O         142.4621  140.7202  165.1701 O.2     1  UNL1       -0.2751
     10 C         141.4397  140.4325  166.2294 C.3     1  UNL1        0.2886
     11 C         140.2232  139.6203  165.8968 C.3     1  UNL1        0.2096
     12 C         139.2009  139.3327  166.9561 C.3     1  UNL1        0.0552
     13 C         141.6338  140.9570  167.6212 C.ar    1  UNL1        0.0310
     14 C         141.0929  142.3047  167.9970 C.ar    1  UNL1        0.0316
     15 C         141.2870  142.8292  169.3889 C.ar    1  UNL1        0.1694
     16 F         140.7461  144.1768  169.7647 F       1  UNL1       -0.2017
     17 C         142.0220  142.0061  170.4048 C.ar    1  UNL1        0.1946
     18 F         142.2161  142.5307  171.7967 F       1  UNL1       -0.1994
     19 C         142.5629  140.6584  170.0290 C.ar    1  UNL1        0.1694
     20 F         143.2979  139.8353  171.0450 F       1  UNL1       -0.2017
     21 C         142.3688  140.1339  168.6372 C.ar    1  UNL1        0.0316
     22 C         140.2251  138.3986  157.4658 C.ar    1  UNL1        0.1547
     23 C         140.4192  138.9231  158.8576 C.ar    1  UNL1        0.0384
     24 C         141.6856  138.6220  159.6028 C.ar    1  UNL1        0.0030
     25 C         142.7581  137.7963  158.9561 C.ar    1  UNL1        0.0017
     26 C         142.5640  137.2718  157.5643 C.ar    1  UNL1        0.0206
     27 C         141.2974  137.5730  156.8191 C.ar    1  UNL1        0.0994
     28 N         141.1033  137.0484  155.4273 N.ar    1  UNL1       -0.2839
     29 C         140.8721  137.8756  154.1976 C.ar    1  UNL1        0.1826
     30 N         140.7322  136.9430  153.0311 N.ar    1  UNL1       -0.2280
     31 C         140.8770  135.5394  153.5398 C.ar    1  UNL1        0.0786
     32 C         140.8051  134.2900  152.7129 C.3     1  UNL1        0.0538
     33 C         141.1064  135.6046  155.0208 C.ar    1  UNL1        0.0963
     34 C         138.6436  140.1093  156.3156 C.3     1  UNL1        0.2525
     35 O         138.9585  138.6998  156.7206 O.3     1  UNL1       -0.4700
@<TRIPOS>BOND
     1    34    35    1
     2    35    22    1
     3    22    23   ar
     4    23    24   ar
     5    24     1    1
     6     1     2    2
     7     2     3    1
     8     3     4    1
     9     4     5    1
    10     5     6    1
    11     6     7    1
    12     7     8    2
    13     8     9    1
    14     9    10    1
    15    10    13    1
    16    13    14   ar
    17    14    15   ar
    18    15    16    1
    19    15    17   ar
    20    17    18    1
    21    17    19   ar
    22    19    20    1
    23    19    21   ar
    24    10    11    1
    25    11    12    1
    26    24    25   ar
    27    25    26   ar
    28    26    27   ar
    29    27    28    1
    30    28    29   ar
    31    29    30   ar
    32    30    31   ar
    33    31    32    1
    34    31    33   ar
    35    27    22   ar
    36    33    28   ar
    37     7     2    1
    38    21    13   ar
    39    11     6    1
@<TRIPOS>MOLECULE
*****
 35 39 0 0 0
SMALL
GASTEIGER

@<TRIPOS>ATOM
      1 C         141.3772  138.6711  161.0461 C.2     1  UNL1        0.0033
      2 C         142.2294  139.7872  161.5736 C.2     1  UNL1        0.0641
      3 C         143.1339  140.5429  160.6459 C.3     1  UNL1        0.0383
      4 C         143.9860  141.6590  161.1734 C.3     1  UNL1        0.0557
      5 C         143.9336  142.0194  162.6285 C.3     1  UNL1        0.2028
      6 N         143.0290  141.2636  163.5562 N.pl3   1  UNL1       -0.1873
      7 C         142.1769  140.1476  163.0287 C.2     1  UNL1        0.3653
      8 N         141.2723  139.3918  163.9564 N.2     1  UNL1        0.1549
      9 O         141.2198  139.7521  165.4115 O.2     1  UNL1       -0.2751
     10 C         142.0720  140.8683  165.9390 C.3     1  UNL1        0.2886
     11 C         142.9765  141.6240  165.0113 C.3     1  UNL1        0.2096
     12 C         143.8286  142.7401  165.5388 C.3     1  UNL1        0.0552
     13 C         142.0195  141.2286  167.3941 C.ar    1  UNL1        0.0310
     14 C         142.7390  140.3829  168.4026 C.ar    1  UNL1        0.0316
     15 C         142.6865  140.7433  169.8577 C.ar    1  UNL1        0.1694
     16 F         143.4060  139.8976  170.8662 F       1  UNL1       -0.2017
     17 C         141.9146  141.9493  170.3044 C.ar    1  UNL1        0.1946
     18 F         141.8621  142.3096  171.7595 F       1  UNL1       -0.1994
     19 C         141.1950  142.7951  169.2958 C.ar    1  UNL1        0.1694
     20 F         140.4230  144.0011  169.7425 F       1  UNL1       -0.2017
     21 C         141.2475  142.4347  167.8407 C.ar    1  UNL1        0.0316
     22 C         140.2658  138.1250  157.2757 C.ar    1  UNL1        0.1547
     23 C         140.2134  138.4853  158.7308 C.ar    1  UNL1        0.0384
     24 C         141.4297  138.3107  159.5910 C.ar    1  UNL1        0.0030
     25 C         142.6986  137.7758  158.9961 C.ar    1  UNL1        0.0017
     26 C         142.7511  137.4154  157.5410 C.ar    1  UNL1        0.0206
     27 C         141.5346  137.5900  156.6808 C.ar    1  UNL1        0.0994
     28 N         141.5871  137.2297  155.2256 N.ar    1  UNL1       -0.2839
     29 C         141.7778  138.1869  154.0866 C.ar    1  UNL1        0.1826
     30 N         141.7666  137.3977  152.8110 N.ar    1  UNL1       -0.2280
     31 C         141.5691  135.9527  153.1617 C.ar    1  UNL1        0.0786
     32 C         141.4954  134.8118  152.1907 C.3     1  UNL1        0.0538
     33 C         141.4581  135.8489  154.6540 C.ar    1  UNL1        0.0963
     34 C         138.7444  139.6379  155.8106 C.3     1  UNL1        0.2525
     35 O         139.0494  138.2996  156.4154 O.3     1  UNL1       -0.4700
@<TRIPOS>BOND
     1    34    35    1
     2    35    22    1
     3    22    23   ar
     4    23    24   ar
     5    24     1    1
     6     1     2    2
     7     2     3    1
     8     3     4    1
     9     4     5    1
    10     5     6    1
    11     6     7    1
    12     7     8    2
    13     8     9    1
    14     9    10    1
    15    10    13    1
    16    13    14   ar
    17    14    15   ar
    18    15    16    1
    19    15    17   ar
    20    17    18    1
    21    17    19   ar
    22    19    20    1
    23    19    21   ar
    24    10    11    1
    25    11    12    1
    26    24    25   ar
    27    25    26   ar
    28    26    27   ar
    29    27    28    1
    30    28    29   ar
    31    29    30   ar
    32    30    31   ar
    33    31    32    1
    34    31    33   ar
    35    27    22   ar
    36    33    28   ar
    37     7     2    1
    38    21    13   ar
    39    11     6    1
@<TRIPOS>MOLECULE
*****
 35 39 0 0 0
SMALL
GASTEIGER

@<TRIPOS>ATOM
      1 C         140.1571  141.1456  160.5405 C.2     1  UNL1        0.0033
      2 C         139.7699  140.3412  161.7460 C.2     1  UNL1        0.0641
      3 C         138.9793  139.0771  161.5818 C.3     1  UNL1        0.0383
      4 C         138.5921  138.2729  162.7873 C.3     1  UNL1        0.0557
      5 C         138.9955  138.7327  164.1569 C.3     1  UNL1        0.2028
      6 N         139.7862  139.9967  164.3210 N.pl3   1  UNL1       -0.1873
      7 C         140.1733  140.8010  163.1156 C.2     1  UNL1        0.3653
      8 N         140.9640  142.0651  163.2797 N.2     1  UNL1        0.1549
      9 O         141.3674  142.5249  164.6493 O.2     1  UNL1       -0.2751
     10 C         140.9802  141.7206  165.8548 C.3     1  UNL1        0.2886
     11 C         140.1896  140.4565  165.6906 C.3     1  UNL1        0.2096
     12 C         139.8024  139.6522  166.8961 C.3     1  UNL1        0.0552
     13 C         141.3836  142.1804  167.2244 C.ar    1  UNL1        0.0310
     14 C         140.3968  142.9004  168.0948 C.ar    1  UNL1        0.0316
     15 C         140.8002  143.3602  169.4644 C.ar    1  UNL1        0.1694
     16 F         139.8134  144.0802  170.3348 F       1  UNL1       -0.2017
     17 C         142.1905  143.0999  169.9636 C.ar    1  UNL1        0.1946
     18 F         142.5940  143.5597  171.3332 F       1  UNL1       -0.1994
     19 C         143.1775  142.3799  169.0932 C.ar    1  UNL1        0.1694
     20 F         144.5678  142.1196  169.5925 F       1  UNL1       -0.2017
     21 C         142.7740  141.9201  167.7236 C.ar    1  UNL1        0.0316
     22 C         138.0255  140.6387  157.2315 C.ar    1  UNL1        0.1547
     23 C         138.4290  141.0985  158.6011 C.ar    1  UNL1        0.0384
     24 C         139.7537  140.6858  159.1709 C.ar    1  UNL1        0.0030
     25 C         140.6751  139.8132  158.3710 C.ar    1  UNL1        0.0017
     26 C         140.2717  139.3534  157.0014 C.ar    1  UNL1        0.0206
     27 C         138.9468  139.7662  156.4316 C.ar    1  UNL1        0.0994
     28 N         138.5434  139.3064  155.0620 N.ar    1  UNL1       -0.2839
     29 C         138.7151  140.0776  153.7869 C.ar    1  UNL1        0.1826
     30 N         138.1753  139.2425  152.6639 N.ar    1  UNL1       -0.2280
     31 C         137.6699  137.9552  153.2449 C.ar    1  UNL1        0.0786
     32 C         137.0464  136.8266  152.4784 C.3     1  UNL1        0.0538
     33 C         137.8974  137.9948  154.7270 C.ar    1  UNL1        0.0963
     34 C         136.5882  142.3182  155.8663 C.3     1  UNL1        0.2525
     35 O         136.7007  141.0515  156.6618 O.3     1  UNL1       -0.4700
@<TRIPOS>BOND
     1    34    35    1
     2    35    22    1
     3    22    23   ar
     4    23    24   ar
     5    24     1    1
     6     1     2    2
     7     2     3    1
     8     3     4    1
     9     4     5    1
    10     5     6    1
    11     6     7    1
    12     7     8    2
    13     8     9    1
    14     9    10    1
    15    10    13    1
    16    13    14   ar
    17    14    15   ar
    18    15    16    1
    19    15    17   ar
    20    17    18    1
    21    17    19   ar
    22    19    20    1
    23    19    21   ar
    24    10    11    1
    25    11    12    1
    26    24    25   ar
    27    25    26   ar
    28    26    27   ar
    29    27    28    1
    30    28    29   ar
    31    29    30   ar
    32    30    31   ar
    33    31    32    1
    34    31    33   ar
    35    27    22   ar
    36    33    28   ar
    37     7     2    1
    38    21    13   ar
    39    11     6    1
@<TRIPOS>MOLECULE
*****
 35 39 0 0 0
SMALL
GASTEIGER

@<TRIPOS>ATOM
      1 C         139.1389  142.2135  160.9533 C.2     1  UNL1        0.0033
      2 C         140.1714  141.2491  161.4573 C.2     1  UNL1        0.0641
      3 C         140.8971  140.3565  160.4948 C.3     1  UNL1        0.0383
      4 C         141.9296  139.3922  160.9987 C.3     1  UNL1        0.0557
      5 C         142.2364  139.3205  162.4653 C.3     1  UNL1        0.2028
      6 N         141.5108  140.2132  163.4278 N.pl3   1  UNL1       -0.1873
      7 C         140.4783  141.1774  162.9238 C.2     1  UNL1        0.3653
      8 N         139.7525  142.0701  163.8864 N.2     1  UNL1        0.1549
      9 O         140.0593  141.9985  165.3529 O.2     1  UNL1       -0.2751
     10 C         141.0919  141.0341  165.8569 C.3     1  UNL1        0.2886
     11 C         141.8176  140.1415  164.8944 C.3     1  UNL1        0.2096
     12 C         142.8501  139.1772  165.3983 C.3     1  UNL1        0.0552
     13 C         141.3987  140.9625  167.3234 C.ar    1  UNL1        0.0310
     14 C         140.4393  140.2876  168.2583 C.ar    1  UNL1        0.0316
     15 C         140.7461  140.2160  169.7248 C.ar    1  UNL1        0.1694
     16 F         139.7867  139.5411  170.6597 F       1  UNL1       -0.2017
     17 C         142.0124  140.8192  170.2565 C.ar    1  UNL1        0.1946
     18 F         142.3192  140.7475  171.7230 F       1  UNL1       -0.1994
     19 C         142.9719  141.4941  169.3216 C.ar    1  UNL1        0.1694
     20 F         144.2381  142.0973  169.8533 F       1  UNL1       -0.2017
     21 C         142.6651  141.5657  167.8551 C.ar    1  UNL1        0.0316
     22 C         137.6529  141.3151  157.3848 C.ar    1  UNL1        0.1547
     23 C         137.9597  141.2434  158.8513 C.ar    1  UNL1        0.0384
     24 C         138.8320  142.2851  159.4868 C.ar    1  UNL1        0.0030
     25 C         139.3976  143.3985  158.6558 C.ar    1  UNL1        0.0017
     26 C         139.0907  143.4702  157.1892 C.ar    1  UNL1        0.0206
     27 C         138.2184  142.4284  156.5537 C.ar    1  UNL1        0.0994
     28 N         137.9116  142.5001  155.0872 N.ar    1  UNL1       -0.2839
     29 C         138.7291  141.8949  153.9848 C.ar    1  UNL1        0.1826
     30 N         138.0562  142.2103  152.6818 N.ar    1  UNL1       -0.2280
     31 C         136.8226  143.0104  152.9790 C.ar    1  UNL1        0.0786
     32 C         135.8493  143.5386  151.9672 C.3     1  UNL1        0.0538
     33 C         136.7333  143.1894  154.4656 C.ar    1  UNL1        0.0963
     34 C         135.3265  140.5555  156.5124 C.3     1  UNL1        0.2525
     35 O         136.7805  140.2733  156.7493 O.3     1  UNL1       -0.4700
@<TRIPOS>BOND
     1    34    35    1
     2    35    22    1
     3    22    23   ar
     4    23    24   ar
     5    24     1    1
     6     1     2    2
     7     2     3    1
     8     3     4    1
     9     4     5    1
    10     5     6    1
    11     6     7    1
    12     7     8    2
    13     8     9    1
    14     9    10    1
    15    10    13    1
    16    13    14   ar
    17    14    15   ar
    18    15    16    1
    19    15    17   ar
    20    17    18    1
    21    17    19   ar
    22    19    20    1
    23    19    21   ar
    24    10    11    1
    25    11    12    1
    26    24    25   ar
    27    25    26   ar
    28    26    27   ar
    29    27    28    1
    30    28    29   ar
    31    29    30   ar
    32    30    31   ar
    33    31    32    1
    34    31    33   ar
    35    27    22   ar
    36    33    28   ar
    37     7     2    1
    38    21    13   ar
    39    11     6    1
@<TRIPOS>MOLECULE
*****
 35 39 0 0 0
SMALL
GASTEIGER

@<TRIPOS>ATOM
      1 C         139.6651  139.8302  161.0118 C.2     1  UNL1        0.0033
      2 C         140.8186  140.6520  161.5060 C.2     1  UNL1        0.0641
      3 C         141.8043  141.2240  160.5307 C.3     1  UNL1        0.0383
      4 C         142.9577  142.0458  161.0249 C.3     1  UNL1        0.0557
      5 C         143.1255  142.2955  162.4944 C.3     1  UNL1        0.2028
      6 N         142.1399  141.7235  163.4697 N.pl3   1  UNL1       -0.1873
      7 C         140.9864  140.9018  162.9755 C.2     1  UNL1        0.3653
      8 N         140.0007  140.3298  163.9508 N.2     1  UNL1        0.1549
      9 O         140.1685  140.5795  165.4204 O.2     1  UNL1       -0.2751
     10 C         141.3220  141.4013  165.9145 C.3     1  UNL1        0.2886
     11 C         142.3076  141.9733  164.9392 C.3     1  UNL1        0.2096
     12 C         143.4611  142.7951  165.4334 C.3     1  UNL1        0.0552
     13 C         141.4898  141.6511  167.3840 C.ar    1  UNL1        0.0310
     14 C         140.7980  142.8142  168.0309 C.ar    1  UNL1        0.0316
     15 C         140.9658  143.0640  169.5004 C.ar    1  UNL1        0.1694
     16 F         140.2739  144.2271  170.1473 F       1  UNL1       -0.2017
     17 C         141.8254  142.1506  170.3231 C.ar    1  UNL1        0.1946
     18 F         141.9932  142.4004  171.7926 F       1  UNL1       -0.1994
     19 C         142.5173  140.9874  169.6762 C.ar    1  UNL1        0.1694
     20 F         143.3769  140.0741  170.4989 F       1  UNL1       -0.2017
     21 C         142.3495  140.7377  168.2067 C.ar    1  UNL1        0.0316
     22 C         140.0039  138.1551  157.4300 C.ar    1  UNL1        0.1547
     23 C         140.1717  138.4049  158.8996 C.ar    1  UNL1        0.0384
     24 C         139.4973  139.5805  159.5423 C.ar    1  UNL1        0.0030
     25 C         138.6551  140.5064  158.7155 C.ar    1  UNL1        0.0017
     26 C         138.4873  140.2566  157.2460 C.ar    1  UNL1        0.0206
     27 C         139.1618  139.0809  156.6033 C.ar    1  UNL1        0.0994
     28 N         138.9940  138.8312  155.1338 N.ar    1  UNL1       -0.2839
     29 C         139.7024  139.5581  154.0293 C.ar    1  UNL1        0.1826
     30 N         139.2345  138.9868  152.7237 N.ar    1  UNL1       -0.2280
     31 C         138.2370  137.9068  153.0211 C.ar    1  UNL1        0.0786
     32 C         137.5149  137.0699  152.0071 C.3     1  UNL1        0.0538
     33 C         138.0883  137.8106  154.5106 C.ar    1  UNL1        0.0963
     34 C         142.1631  136.9906  156.5745 C.3     1  UNL1        0.2525
     35 O         140.6783  136.9794  156.7873 O.3     1  UNL1       -0.4700
@<TRIPOS>BOND
     1    34    35    1
     2    35    22    1
     3    22    23   ar
     4    23    24   ar
     5    24     1    1
     6     1     2    2
     7     2     3    1
     8     3     4    1
     9     4     5    1
    10     5     6    1
    11     6     7    1
    12     7     8    2
    13     8     9    1
    14     9    10    1
    15    10    13    1
    16    13    14   ar
    17    14    15   ar
    18    15    16    1
    19    15    17   ar
    20    17    18    1
    21    17    19   ar
    22    19    20    1
    23    19    21   ar
    24    10    11    1
    25    11    12    1
    26    24    25   ar
    27    25    26   ar
    28    26    27   ar
    29    27    28    1
    30    28    29   ar
    31    29    30   ar
    32    30    31   ar
    33    31    32    1
    34    31    33   ar
    35    27    22   ar
    36    33    28   ar
    37     7     2    1
    38    21    13   ar
    39    11     6    1
@<TRIPOS>MOLECULE
*****
 35 39 0 0 0
SMALL
GASTEIGER

@<TRIPOS>ATOM
      1 C         139.6432  139.8347  161.0081 C.2     1  UNL1        0.0033
      2 C         140.8088  140.6447  161.4934 C.2     1  UNL1        0.0641
      3 C         141.7964  141.2011  160.5111 C.3     1  UNL1        0.0383
      4 C         142.9618  142.0111  160.9964 C.3     1  UNL1        0.0557
      5 C         143.1397  142.2646  162.4641 C.3     1  UNL1        0.2028
      6 N         142.1521  141.7081  163.4464 N.pl3   1  UNL1       -0.1873
      7 C         140.9867  140.8982  162.9611 C.2     1  UNL1        0.3653
      8 N         139.9990  140.3417  163.9434 N.2     1  UNL1        0.1549
      9 O         140.1769  140.5952  165.4111 O.2     1  UNL1       -0.2751
     10 C         141.3425  141.4052  165.8964 C.3     1  UNL1        0.2886
     11 C         142.3300  141.9617  164.9141 C.3     1  UNL1        0.2096
     12 C         143.4955  142.7716  165.3995 C.3     1  UNL1        0.0552
     13 C         141.5204  141.6588  167.3641 C.ar    1  UNL1        0.0310
     14 C         142.3954  140.7547  168.1808 C.ar    1  UNL1        0.0316
     15 C         142.5733  141.0082  169.6484 C.ar    1  UNL1        0.1694
     16 F         143.4483  140.1041  170.4651 F       1  UNL1       -0.2017
     17 C         141.8761  142.1658  170.2995 C.ar    1  UNL1        0.1946
     18 F         142.0540  142.4193  171.7672 F       1  UNL1       -0.1994
     19 C         141.0011  143.0700  169.4829 C.ar    1  UNL1        0.1694
     20 F         140.3039  144.2276  170.1339 F       1  UNL1       -0.2017
     21 C         140.8232  142.8164  168.0152 C.ar    1  UNL1        0.0316
     22 C         138.4461  140.2558  157.2479 C.ar    1  UNL1        0.1547
     23 C         138.6240  140.5093  158.7155 C.ar    1  UNL1        0.0384
     24 C         139.4654  139.5811  159.5404 C.ar    1  UNL1        0.0030
     25 C         140.1289  138.3993  158.8976 C.ar    1  UNL1        0.0017
     26 C         139.9510  138.1458  157.4299 C.ar    1  UNL1        0.0206
     27 C         139.1096  139.0741  156.6051 C.ar    1  UNL1        0.0994
     28 N         138.9317  138.8206  155.1374 N.ar    1  UNL1       -0.2839
     29 C         139.5826  139.5877  154.0248 C.ar    1  UNL1        0.1826
     30 N         139.1249  138.9967  152.7244 N.ar    1  UNL1       -0.2280
     31 C         138.1910  137.8642  153.0332 C.ar    1  UNL1        0.0786
     32 C         137.4982  136.9934  152.0274 C.3     1  UNL1        0.0538
     33 C         138.0716  137.7554  154.5245 C.ar    1  UNL1        0.0963
     34 C         136.1281  140.9495  156.3014 C.3     1  UNL1        0.2525
     35 O         137.6046  141.1841  156.4230 O.3     1  UNL1       -0.4700
@<TRIPOS>BOND
     1    34    35    1
     2    35    22    1
     3    22    23   ar
     4    23    24   ar
     5    24     1    1
     6     1     2    2
     7     2     3    1
     8     3     4    1
     9     4     5    1
    10     5     6    1
    11     6     7    1
    12     7     8    2
    13     8     9    1
    14     9    10    1
    15    10    13    1
    16    13    14   ar
    17    14    15   ar
    18    15    16    1
    19    15    17   ar
    20    17    18    1
    21    17    19   ar
    22    19    20    1
    23    19    21   ar
    24    10    11    1
    25    11    12    1
    26    24    25   ar
    27    25    26   ar
    28    26    27   ar
    29    27    28    1
    30    28    29   ar
    31    29    30   ar
    32    30    31   ar
    33    31    32    1
    34    31    33   ar
    35    27    22   ar
    36    33    28   ar
    37     7     2    1
    38    21    13   ar
    39    11     6    1
@<TRIPOS>MOLECULE
*****
 35 39 0 0 0
SMALL
GASTEIGER

@<TRIPOS>ATOM
      1 C         139.7094  141.0037  156.8162 C.2     1  UNL1        0.0033
      2 C         138.8166  141.3063  155.6494 C.2     1  UNL1        0.0641
      3 C         139.3989  141.8623  154.3838 C.3     1  UNL1        0.0383
      4 C         138.5061  142.1649  153.2171 C.3     1  UNL1        0.0557
      5 C         137.0309  141.9115  153.3160 C.3     1  UNL1        0.2028
      6 N         136.4486  141.3556  154.5816 N.pl3   1  UNL1       -0.1873
      7 C         137.3414  141.0530  155.7483 C.2     1  UNL1        0.3653
      8 N         136.7591  140.4970  157.0140 N.2     1  UNL1        0.1549
      9 O         135.2840  140.2437  157.1129 O.2     1  UNL1       -0.2751
     10 C         134.3912  140.5463  155.9461 C.3     1  UNL1        0.2886
     11 C         134.9735  141.1023  154.6805 C.3     1  UNL1        0.2096
     12 C         134.0807  141.4049  153.5138 C.3     1  UNL1        0.0552
     13 C         132.9160  140.2930  156.0450 C.ar    1  UNL1        0.0310
     14 C         131.9434  141.3846  155.7098 C.ar    1  UNL1        0.0316
     15 C         130.4683  141.1313  155.8087 C.ar    1  UNL1        0.1694
     16 F         129.4957  142.2229  155.4734 F       1  UNL1       -0.2017
     17 C         129.9657  139.7863  156.2428 C.ar    1  UNL1        0.1946
     18 F         128.4906  139.5330  156.3417 F       1  UNL1       -0.1994
     19 C         130.9383  138.6946  156.5781 C.ar    1  UNL1        0.1694
     20 F         130.4358  137.3497  157.0123 F       1  UNL1       -0.2017
     21 C         132.4135  138.9480  156.4792 C.ar    1  UNL1        0.0316
     22 C         143.6123  140.3578  156.4999 C.ar    1  UNL1        0.1547
     23 C         142.1372  140.1045  156.5988 C.ar    1  UNL1        0.0384
     24 C         141.1846  141.2570  156.7173 C.ar    1  UNL1        0.0030
     25 C         141.7071  142.6630  156.7370 C.ar    1  UNL1        0.0017
     26 C         143.1822  142.9163  156.6381 C.ar    1  UNL1        0.0206
     27 C         144.1348  141.7637  156.5195 C.ar    1  UNL1        0.0994
     28 N         145.6100  142.0170  156.4206 N.ar    1  UNL1       -0.2839
     29 C         146.4766  142.6094  157.4921 C.ar    1  UNL1        0.1826
     30 N         147.8798  142.6810  156.9666 N.ar    1  UNL1       -0.2280
     31 C         147.8803  142.1328  155.5703 C.ar    1  UNL1        0.0786
     32 C         149.0740  142.0155  154.6696 C.3     1  UNL1        0.0538
     33 C         146.4775  141.7224  155.2330 C.ar    1  UNL1        0.0963
     34 C         144.7160  138.4886  155.0723 C.3     1  UNL1        0.2525
     35 O         144.5650  139.2052  156.3814 O.3     1  UNL1       -0.4700
@<TRIPOS>BOND
     1    34    35    1
     2    35    22    1
     3    22    23   ar
     4    23    24   ar
     5    24     1    1
     6     1     2    2
     7     2     3    1
     8     3     4    1
     9     4     5    1
    10     5     6    1
    11     6     7    1
    12     7     8    2
    13     8     9    1
    14     9    10    1
    15    10    13    1
    16    13    14   ar
    17    14    15   ar
    18    15    16    1
    19    15    17   ar
    20    17    18    1
    21    17    19   ar
    22    19    20    1
    23    19    21   ar
    24    10    11    1
    25    11    12    1
    26    24    25   ar
    27    25    26   ar
    28    26    27   ar
    29    27    28    1
    30    28    29   ar
    31    29    30   ar
    32    30    31   ar
    33    31    32    1
    34    31    33   ar
    35    27    22   ar
    36    33    28   ar
    37     7     2    1
    38    21    13   ar
    39    11     6    1
@<TRIPOS>MOLECULE
*****
 35 39 0 0 0
SMALL
GASTEIGER

@<TRIPOS>ATOM
      1 C         139.2531  140.0890  160.9359 C.2     1  UNL1        0.0033
      2 C         140.4447  139.8331  161.8104 C.2     1  UNL1        0.0641
      3 C         141.6756  139.1987  161.2340 C.3     1  UNL1        0.0383
      4 C         142.8672  138.9428  162.1085 C.3     1  UNL1        0.0557
      5 C         142.8278  139.3214  163.5594 C.3     1  UNL1        0.2028
      6 N         141.5968  139.9558  164.1358 N.pl3   1  UNL1       -0.1873
      7 C         140.4053  140.2116  163.2614 C.2     1  UNL1        0.3653
      8 N         139.1743  140.8460  163.8378 N.2     1  UNL1        0.1549
      9 O         139.1349  141.2246  165.2887 O.2     1  UNL1       -0.2751
     10 C         140.3265  140.9687  166.1632 C.3     1  UNL1        0.2886
     11 C         141.5574  140.3343  165.5867 C.3     1  UNL1        0.2096
     12 C         142.7490  140.0784  166.4612 C.3     1  UNL1        0.0552
     13 C         140.2871  141.3472  167.6141 C.ar    1  UNL1        0.0310
     14 C         140.4388  142.7836  168.0189 C.ar    1  UNL1        0.0316
     15 C         140.3994  143.1621  169.4698 C.ar    1  UNL1        0.1694
     16 F         140.5511  144.5984  169.8745 F       1  UNL1       -0.2017
     17 C         140.2083  142.1043  170.5159 C.ar    1  UNL1        0.1946
     18 F         140.1689  142.4828  171.9668 F       1  UNL1       -0.1994
     19 C         140.0566  140.6679  170.1112 C.ar    1  UNL1        0.1694
     20 F         139.8655  139.6101  171.1574 F       1  UNL1       -0.2017
     21 C         140.0960  140.2893  168.6603 C.ar    1  UNL1        0.0316
     22 C         138.9889  140.3471  156.9846 C.ar    1  UNL1        0.1547
     23 C         138.9495  140.7256  158.4355 C.ar    1  UNL1        0.0384
     24 C         139.2925  139.7104  159.4850 C.ar    1  UNL1        0.0030
     25 C         139.6750  138.3166  159.0837 C.ar    1  UNL1        0.0017
     26 C         139.7144  137.9380  157.6328 C.ar    1  UNL1        0.0206
     27 C         139.3713  138.9533  156.5832 C.ar    1  UNL1        0.0994
     28 N         139.4107  138.5748  155.1323 N.ar    1  UNL1       -0.2839
     29 C         140.3441  139.1346  154.1001 C.ar    1  UNL1        0.1826
     30 N         140.0339  138.4758  152.7887 N.ar    1  UNL1       -0.2280
     31 C         138.9088  137.5088  153.0104 C.ar    1  UNL1        0.0786
     32 C         138.2794  136.6342  151.9669 C.3     1  UNL1        0.0538
     33 C         138.5237  137.5700  154.4588 C.ar    1  UNL1        0.0963
     34 C         137.2190  141.5520  155.5129 C.3     1  UNL1        0.2525
     35 O         138.6458  141.3624  155.9350 O.3     1  UNL1       -0.4700
@<TRIPOS>BOND
     1    34    35    1
     2    35    22    1
     3    22    23   ar
     4    23    24   ar
     5    24     1    1
     6     1     2    2
     7     2     3    1
     8     3     4    1
     9     4     5    1
    10     5     6    1
    11     6     7    1
    12     7     8    2
    13     8     9    1
    14     9    10    1
    15    10    13    1
    16    13    14   ar
    17    14    15   ar
    18    15    16    1
    19    15    17   ar
    20    17    18    1
    21    17    19   ar
    22    19    20    1
    23    19    21   ar
    24    10    11    1
    25    11    12    1
    26    24    25   ar
    27    25    26   ar
    28    26    27   ar
    29    27    28    1
    30    28    29   ar
    31    29    30   ar
    32    30    31   ar
    33    31    32    1
    34    31    33   ar
    35    27    22   ar
    36    33    28   ar
    37     7     2    1
    38    21    13   ar
    39    11     6    1
