@<TRIPOS>MOLECULE
*****
 34 38 0 0 0
SMALL
GASTEIGER

@<TRIPOS>ATOM
      1 C         140.9162  145.0030  161.9355 C.ar    1  UNL1        0.0505
      2 C         139.6877  145.3084  162.7402 C.ar    1  UNL1        0.0178
      3 C         139.5492  144.7671  164.1322 C.ar    1  UNL1        0.0379
      4 C         140.6392  143.9204  164.7196 C.ar    1  UNL1        0.1361
      5 C         141.8677  143.6150  163.9149 C.ar    1  UNL1        0.0369
      6 C         142.0062  144.1563  162.5228 C.ar    1  UNL1        0.0153
      7 C         142.9577  142.7682  164.5023 C.3     1  UNL1        0.1581
      8 C         144.1242  141.9404  164.9538 C.3     1  UNL1        0.2351
      9 O         145.1229  141.8975  163.8353 O.2     1  UNL1       -0.4478
     10 C         144.5736  142.6989  162.6925 C.2     1  UNL1        0.2770
     11 N         145.2445  142.9229  161.3699 N.pl3   1  UNL1       -0.3133
     12 N         143.2354  143.2371  163.1047 N.2     1  UNL1       -0.2202
     13 C         142.8192  142.2269  165.8943 C.3     1  UNL1        0.1141
     14 C         142.5151  142.4632  165.7304 C.3     1  UNL1        0.1501
     15 O         142.8347  142.2148  165.9027 O.3     1  UNL1       -0.3532
     16 C         142.5151  142.4632  165.7304 C.3     1  UNL1        0.1501
     17 C         141.5907  142.5323  166.6989 C.3     1  UNL1        0.1398
     18 C         140.6242  142.5452  167.8460 C.3     1  UNL1        0.0438
     19 C         142.3450  141.6901  167.6847 C.3     1  UNL1        0.0438
     20 O         140.5007  143.3791  166.1116 O.3     1  UNL1       -0.4826
     21 H         146.1277  142.5258  161.1924 H       1  UNL1        0.1466
     22 H         144.8016  143.4669  160.6791 H       1  UNL1        0.1466
     23 C         140.2687  144.9355  159.4203 C.2     1  UNL1        0.2669
     24 O         139.3442  143.7853  159.6892 O.2     1  UNL1       -0.2682
     25 N         141.0547  145.5443  160.5434 N.am    1  UNL1       -0.2792
     26 H         141.6615  146.2993  160.3670 H       1  UNL1        0.1552
     27 C         142.4356  143.9058  157.6190 C.3     1  UNL1        0.0328
     28 C         141.4907  144.9620  157.1276 C.ar    1  UNL1        0.0012
     29 C         141.6292  145.5034  155.7356 C.ar    1  UNL1        0.0103
     30 C         140.6842  146.5596  155.2442 C.ar    1  UNL1        0.0765
     31 CL        140.8228  147.1010  153.8522 Cl      1  UNL1       -0.0806
     32 C         139.6008  147.0744  156.1448 C.ar    1  UNL1        0.1103
     33 N         139.4623  146.5331  157.5368 N.ar    1  UNL1       -0.2387
     34 C         140.4073  145.4768  158.0282 C.ar    1  UNL1        0.1308
@<TRIPOS>BOND
     1    27    28    1
     2    28    29   ar
     3    29    30   ar
     4    30    31    1
     5    30    32   ar
     6    32    33   ar
     7    33    34   ar
     8    34    23    1
     9    23    24    2
    10    23    25   am
    11    25     1    1
    12     1     2   ar
    13     2     3   ar
    14     3     4   ar
    15     4     5   ar
    16     5     6   ar
    17     5     7    1
    18     7     8    1
    19     8     9    1
    20     9    10    1
    21    10    11    1
    22    10    12    2
    23     7    13    1
    24    13    14    1
    25    14    15    1
    26    15    16    1
    27    13    17    1
    28    17    18    1
    29    17    19    1
    30    17    20    1
    31    34    28   ar
    32     6     1   ar
    33    12     7    1
    34    16    13    1
    35    20     4    1
    36    25    26    1
    37    11    21    1
    38    11    22    1
@<TRIPOS>MOLECULE
*****
 34 38 0 0 0
SMALL
GASTEIGER

@<TRIPOS>ATOM
      1 C         140.9067  142.5870  164.4805 C.ar    1  UNL1        0.0505
      2 C         140.1745  143.4005  165.5063 C.ar    1  UNL1        0.0178
      3 C         140.2394  143.0155  166.9546 C.ar    1  UNL1        0.0379
      4 C         141.0364  141.8171  167.3771 C.ar    1  UNL1        0.1361
      5 C         141.7685  141.0036  166.3514 C.ar    1  UNL1        0.0369
      6 C         141.7037  141.3886  164.9030 C.ar    1  UNL1        0.0153
      7 C         142.5655  139.8052  166.7739 C.3     1  UNL1        0.1581
      8 C         143.3985  138.5874  167.0448 C.3     1  UNL1        0.2351
      9 O         143.9411  138.0963  165.7354 O.2     1  UNL1       -0.4478
     10 C         143.4435  139.0105  164.6552 C.2     1  UNL1        0.2770
     11 N         143.7434  138.8897  163.1906 N.pl3   1  UNL1       -0.3133
     12 N         142.5934  140.0666  165.2970 N.2     1  UNL1       -0.2202
     13 C         142.6304  139.4202  168.2221 C.3     1  UNL1        0.1141
     14 C         142.4080  139.7545  168.1043 C.3     1  UNL1        0.1501
     15 O         142.6418  139.4031  168.2282 O.3     1  UNL1       -0.3532
     16 C         142.4080  139.7545  168.1043 C.3     1  UNL1        0.1501
     17 C         141.8982  140.2336  169.2479 C.3     1  UNL1        0.1398
     18 C         141.3804  140.6853  170.5812 C.3     1  UNL1        0.0438
     19 C         142.5154  139.1920  170.1336 C.3     1  UNL1        0.0438
     20 O         141.1012  141.4321  168.8254 O.3     1  UNL1       -0.4826
     21 H         144.3152  138.1580  162.8639 H       1  UNL1        0.1466
     22 H         143.3683  139.5423  162.5559 H       1  UNL1        0.1466
     23 C         141.7818  144.0068  162.4884 C.2     1  UNL1        0.2669
     24 O         142.7866  144.6566  163.3929 O.2     1  UNL1       -0.2682
     25 N         140.8418  142.9721  163.0322 N.am    1  UNL1       -0.2792
     26 H         140.1824  142.5456  162.4386 H       1  UNL1        0.1552
     27 C         139.7906  146.0534  161.5680 C.3     1  UNL1        0.0328
     28 C         140.7214  145.4151  160.5799 C.ar    1  UNL1        0.0012
     29 C         140.6565  145.8000  159.1316 C.ar    1  UNL1        0.0103
     30 C         141.5872  145.1617  158.1435 C.ar    1  UNL1        0.0765
     31 CL        141.5223  145.5467  156.6952 Cl      1  UNL1       -0.0806
     32 C         142.5828  144.1385  158.6037 C.ar    1  UNL1        0.1103
     33 N         142.6476  143.7535  160.0520 N.ar    1  UNL1       -0.2387
     34 C         141.7169  144.3918  161.0401 C.ar    1  UNL1        0.1308
@<TRIPOS>BOND
     1    27    28    1
     2    28    29   ar
     3    29    30   ar
     4    30    31    1
     5    30    32   ar
     6    32    33   ar
     7    33    34   ar
     8    34    23    1
     9    23    24    2
    10    23    25   am
    11    25     1    1
    12     1     2   ar
    13     2     3   ar
    14     3     4   ar
    15     4     5   ar
    16     5     6   ar
    17     5     7    1
    18     7     8    1
    19     8     9    1
    20     9    10    1
    21    10    11    1
    22    10    12    2
    23     7    13    1
    24    13    14    1
    25    14    15    1
    26    15    16    1
    27    13    17    1
    28    17    18    1
    29    17    19    1
    30    17    20    1
    31    34    28   ar
    32     6     1   ar
    33    12     7    1
    34    16    13    1
    35    20     4    1
    36    25    26    1
    37    11    21    1
    38    11    22    1
@<TRIPOS>MOLECULE
*****
 34 38 0 0 0
SMALL
GASTEIGER

@<TRIPOS>ATOM
      1 C         142.8469  141.1005  164.5859 C.ar    1  UNL1        0.0505
      2 C         143.5304  142.0004  165.5723 C.ar    1  UNL1        0.0178
      3 C         142.9706  142.1605  166.9547 C.ar    1  UNL1        0.0379
      4 C         141.7273  141.4207  167.3506 C.ar    1  UNL1        0.1361
      5 C         141.0438  140.5208  166.3642 C.ar    1  UNL1        0.0369
      6 C         141.6036  140.3607  164.9818 C.ar    1  UNL1        0.0153
      7 C         139.8004  139.7810  166.7602 C.3     1  UNL1        0.1581
      8 C         138.5564  138.9812  167.0111 C.3     1  UNL1        0.2351
      9 O         138.2281  138.2287  165.7556 O.2     1  UNL1       -0.4478
     10 C         139.2691  138.5634  164.7289 C.2     1  UNL1        0.2770
     11 N         139.3281  138.0322  163.3274 N.pl3   1  UNL1       -0.3133
     12 N         140.2409  139.5228  165.3497 N.2     1  UNL1       -0.2202
     13 C         139.2406  139.9410  168.1426 C.3     1  UNL1        0.1141
     14 C         139.5875  140.1474  168.0321 C.3     1  UNL1        0.1501
     15 O         139.2229  139.9305  168.1482 O.3     1  UNL1       -0.3532
     16 C         139.5875  140.1474  168.0321 C.3     1  UNL1        0.1501
     17 C         139.9241  140.8409  169.1289 C.3     1  UNL1        0.1398
     18 C         140.2103  141.5720  170.4070 C.3     1  UNL1        0.0438
     19 C         138.7801  140.3550  169.9688 C.3     1  UNL1        0.0438
     20 O         141.1674  141.5807  168.7330 O.3     1  UNL1       -0.4826
     21 H         138.6403  137.4032  163.0101 H       1  UNL1        0.1466
     22 H         140.0545  138.3124  162.7249 H       1  UNL1        0.1466
     23 C         142.8032  141.6971  162.0576 C.2     1  UNL1        0.2669
     24 O         141.6398  142.6139  162.2940 O.2     1  UNL1       -0.2682
     25 N         143.4068  140.9404  163.2035 N.am    1  UNL1       -0.2792
     26 H         144.1704  140.3387  163.0483 H       1  UNL1        0.1552
     27 C         142.0775  139.2945  160.4142 C.3     1  UNL1        0.0328
     28 C         143.0002  140.3357  159.8535 C.ar    1  UNL1        0.0012
     29 C         143.5601  140.1757  158.4712 C.ar    1  UNL1        0.0103
     30 C         144.4829  141.2169  157.9106 C.ar    1  UNL1        0.0765
     31 CL        145.0428  141.0568  156.5282 Cl      1  UNL1       -0.0806
     32 C         144.8458  142.4182  158.7322 C.ar    1  UNL1        0.1103
     33 N         144.2859  142.5782  160.1145 N.ar    1  UNL1       -0.2387
     34 C         143.3631  141.5370  160.6752 C.ar    1  UNL1        0.1308
@<TRIPOS>BOND
     1    27    28    1
     2    28    29   ar
     3    29    30   ar
     4    30    31    1
     5    30    32   ar
     6    32    33   ar
     7    33    34   ar
     8    34    23    1
     9    23    24    2
    10    23    25   am
    11    25     1    1
    12     1     2   ar
    13     2     3   ar
    14     3     4   ar
    15     4     5   ar
    16     5     6   ar
    17     5     7    1
    18     7     8    1
    19     8     9    1
    20     9    10    1
    21    10    11    1
    22    10    12    2
    23     7    13    1
    24    13    14    1
    25    14    15    1
    26    15    16    1
    27    13    17    1
    28    17    18    1
    29    17    19    1
    30    17    20    1
    31    34    28   ar
    32     6     1   ar
    33    12     7    1
    34    16    13    1
    35    20     4    1
    36    25    26    1
    37    11    21    1
    38    11    22    1
@<TRIPOS>MOLECULE
*****
 34 38 0 0 0
SMALL
GASTEIGER

@<TRIPOS>ATOM
      1 C         141.9642  142.2535  164.1073 C.ar    1  UNL1        0.0505
      2 C         143.1961  142.7012  164.8368 C.ar    1  UNL1        0.0178
      3 C         143.3685  142.3718  166.2899 C.ar    1  UNL1        0.0379
      4 C         142.3091  141.5948  167.0137 C.ar    1  UNL1        0.1361
      5 C         141.0773  141.1470  166.2843 C.ar    1  UNL1        0.0369
      6 C         140.9048  141.4764  164.8310 C.ar    1  UNL1        0.0153
      7 C         140.0179  140.3699  167.0080 C.3     1  UNL1        0.1581
      8 C         138.8795  139.5900  167.5961 C.3     1  UNL1        0.2351
      9 O         137.8662  139.3615  166.5139 O.2     1  UNL1       -0.4478
     10 C         138.3782  140.0003  165.2570 C.2     1  UNL1        0.2770
     11 N         137.6827  140.0136  163.9282 N.pl3   1  UNL1       -0.3133
     12 N         139.7081  140.6236  165.5624 N.2     1  UNL1       -0.2202
     13 C         140.1903  140.0406  168.4612 C.3     1  UNL1        0.1141
     14 C         140.4859  140.2574  168.2592 C.3     1  UNL1        0.1501
     15 O         140.1752  140.0295  168.4715 O.3     1  UNL1       -0.3532
     16 C         140.4859  140.2574  168.2592 C.3     1  UNL1        0.1501
     17 C         141.4222  140.4883  169.1906 C.3     1  UNL1        0.1398
     18 C         142.4045  140.6905  170.3059 C.3     1  UNL1        0.0438
     19 C         140.7040  139.7814  170.3018 C.3     1  UNL1        0.0438
     20 O         142.4816  141.2654  168.4668 O.3     1  UNL1       -0.4826
     21 H         136.8074  139.5746  163.8264 H       1  UNL1        0.1466
     22 H         138.1014  140.4613  163.1579 H       1  UNL1        0.1466
     23 C         140.9170  143.7303  162.2438 C.2     1  UNL1        0.2669
     24 O         140.2148  144.5483  163.2866 O.2     1  UNL1       -0.2682
     25 N         141.7918  142.5829  162.6541 N.am    1  UNL1       -0.2792
     26 H         142.2527  142.0460  161.9696 H       1  UNL1        0.1552
     27 C         138.7599  142.3892  160.6474 C.3     1  UNL1        0.0328
     28 C         139.6661  143.3891  159.9924 C.ar    1  UNL1        0.0012
     29 C         139.4937  143.7185  158.5392 C.ar    1  UNL1        0.0103
     30 C         140.3999  144.7183  157.8842 C.ar    1  UNL1        0.0765
     31 CL        140.2275  145.0477  156.4309 Cl      1  UNL1       -0.0806
     32 C         141.4784  145.3889  158.6823 C.ar    1  UNL1        0.1103
     33 N         141.6508  145.0595  160.1355 N.ar    1  UNL1       -0.2387
     34 C         140.7446  144.0596  160.7905 C.ar    1  UNL1        0.1308
@<TRIPOS>BOND
     1    27    28    1
     2    28    29   ar
     3    29    30   ar
     4    30    31    1
     5    30    32   ar
     6    32    33   ar
     7    33    34   ar
     8    34    23    1
     9    23    24    2
    10    23    25   am
    11    25     1    1
    12     1     2   ar
    13     2     3   ar
    14     3     4   ar
    15     4     5   ar
    16     5     6   ar
    17     5     7    1
    18     7     8    1
    19     8     9    1
    20     9    10    1
    21    10    11    1
    22    10    12    2
    23     7    13    1
    24    13    14    1
    25    14    15    1
    26    15    16    1
    27    13    17    1
    28    17    18    1
    29    17    19    1
    30    17    20    1
    31    34    28   ar
    32     6     1   ar
    33    12     7    1
    34    16    13    1
    35    20     4    1
    36    25    26    1
    37    11    21    1
    38    11    22    1
@<TRIPOS>MOLECULE
*****
 34 38 0 0 0
SMALL
GASTEIGER

@<TRIPOS>ATOM
      1 C         139.8427  139.6152  164.0435 C.ar    1  UNL1        0.0505
      2 C         138.6151  138.9261  164.5614 C.ar    1  UNL1        0.0178
      3 C         138.2923  138.9688  166.0256 C.ar    1  UNL1        0.0379
      4 C         139.1972  139.7006  166.9721 C.ar    1  UNL1        0.1361
      5 C         140.4248  140.3897  166.4543 C.ar    1  UNL1        0.0369
      6 C         140.7475  140.3470  164.9900 C.ar    1  UNL1        0.0153
      7 C         141.3296  141.1215  167.4007 C.3     1  UNL1        0.1581
      8 C         142.3231  141.8883  168.2223 C.3     1  UNL1        0.2351
      9 O         143.3868  142.4056  167.2997 O.2     1  UNL1       -0.4478
     10 C         143.0508  141.9584  165.9079 C.2     1  UNL1        0.2770
     11 N         143.8463  142.2531  164.6709 N.pl3   1  UNL1       -0.3133
     12 N         141.7793  141.1648  165.9702 N.2     1  UNL1       -0.2202
     13 C         141.0069  141.1642  168.8649 C.3     1  UNL1        0.1141
     14 C         140.7545  140.9601  168.6008 C.3     1  UNL1        0.1501
     15 O         141.0198  141.1747  168.8784 O.3     1  UNL1       -0.3532
     16 C         140.7545  140.9601  168.6008 C.3     1  UNL1        0.1501
     17 C         139.7794  140.4751  169.3827 C.3     1  UNL1        0.1398
     18 C         138.7408  139.9806  170.3454 C.3     1  UNL1        0.0438
     19 C         140.3235  141.0352  170.6635 C.3     1  UNL1        0.0438
     20 O         138.8745  139.7433  168.4363 O.3     1  UNL1       -0.4826
     21 H         144.6721  142.7856  164.7320 H       1  UNL1        0.1466
     22 H         143.5427  141.9139  163.7980 H       1  UNL1        0.1466
     23 C         140.6540  138.2987  161.9558 C.2     1  UNL1        0.2669
     24 O         140.8198  137.0676  162.7965 O.2     1  UNL1       -0.2682
     25 N         140.1654  139.5725  162.5793 N.am    1  UNL1       -0.2792
     26 H         140.0565  140.3806  162.0275 H       1  UNL1        0.1552
     27 C         143.4926  137.9367  161.0553 C.3     1  UNL1        0.0328
     28 C         142.3960  138.0751  160.0413 C.ar    1  UNL1        0.0012
     29 C         142.7186  138.0324  158.5771 C.ar    1  UNL1        0.0103
     30 C         141.6220  138.1708  157.5631 C.ar    1  UNL1        0.0765
     31 CL        141.9447  138.1281  156.0987 Cl      1  UNL1       -0.0806
     32 C         140.2027  138.3518  158.0133 C.ar    1  UNL1        0.1103
     33 N         139.8800  138.3944  159.4775 N.ar    1  UNL1       -0.2387
     34 C         140.9767  138.2561  160.4915 C.ar    1  UNL1        0.1308
@<TRIPOS>BOND
     1    27    28    1
     2    28    29   ar
     3    29    30   ar
     4    30    31    1
     5    30    32   ar
     6    32    33   ar
     7    33    34   ar
     8    34    23    1
     9    23    24    2
    10    23    25   am
    11    25     1    1
    12     1     2   ar
    13     2     3   ar
    14     3     4   ar
    15     4     5   ar
    16     5     6   ar
    17     5     7    1
    18     7     8    1
    19     8     9    1
    20     9    10    1
    21    10    11    1
    22    10    12    2
    23     7    13    1
    24    13    14    1
    25    14    15    1
    26    15    16    1
    27    13    17    1
    28    17    18    1
    29    17    19    1
    30    17    20    1
    31    34    28   ar
    32     6     1   ar
    33    12     7    1
    34    16    13    1
    35    20     4    1
    36    25    26    1
    37    11    21    1
    38    11    22    1
@<TRIPOS>MOLECULE
*****
 34 38 0 0 0
SMALL
GASTEIGER

@<TRIPOS>ATOM
      1 C         142.4336  144.3847  161.9366 C.ar    1  UNL1        0.0505
      2 C         143.7978  144.0147  162.4389 C.ar    1  UNL1        0.0178
      3 C         143.9598  143.4397  163.8148 C.ar    1  UNL1        0.0379
      4 C         142.7578  143.2348  164.6884 C.ar    1  UNL1        0.1361
      5 C         141.3938  143.6048  164.1862 C.ar    1  UNL1        0.0369
      6 C         141.2316  144.1798  162.8102 C.ar    1  UNL1        0.0153
      7 C         140.1918  143.3999  165.0598 C.3     1  UNL1        0.1581
      8 C         138.9042  143.2532  165.8153 C.3     1  UNL1        0.2351
      9 O         137.7924  143.7443  164.9362 O.2     1  UNL1       -0.4478
     10 C         138.3927  144.1945  163.6374 C.2     1  UNL1        0.2770
     11 N         137.6421  144.7585  162.4677 N.pl3   1  UNL1       -0.3133
     12 N         139.8756  143.9817  163.7138 N.2     1  UNL1       -0.2202
     13 C         140.3539  142.8250  166.4357 C.3     1  UNL1        0.1141
     14 C         140.6892  142.8821  166.1919 C.3     1  UNL1        0.1501
     15 O         140.3367  142.8220  166.4481 O.3     1  UNL1       -0.3532
     16 C         140.6892  142.8821  166.1919 C.3     1  UNL1        0.1501
     17 C         141.7179  142.4549  166.9379 C.3     1  UNL1        0.1398
     18 C         142.7944  141.9532  167.8542 C.3     1  UNL1        0.0438
     19 C         140.8898  142.0757  168.1298 C.3     1  UNL1        0.0438
     20 O         142.9199  142.6598  166.0643 O.3     1  UNL1       -0.4826
     21 H         136.6639  144.8602  162.5133 H       1  UNL1        0.1466
     22 H         138.1276  145.0270  161.6545 H       1  UNL1        0.1466
     23 C         141.3911  144.2723  159.5595 C.2     1  UNL1        0.2669
     24 O         140.6727  143.0100  159.9343 O.2     1  UNL1       -0.2682
     25 N         142.2715  144.9597  160.5607 N.am    1  UNL1       -0.2792
     26 H         142.7430  145.7882  160.3147 H       1  UNL1        0.1552
     27 C         143.1969  143.3773  157.3374 C.3     1  UNL1        0.0328
     28 C         142.1319  144.3998  157.0726 C.ar    1  UNL1        0.0012
     29 C         141.9698  144.9748  155.6967 C.ar    1  UNL1        0.0103
     30 C         140.9048  145.9974  155.4319 C.ar    1  UNL1        0.0765
     31 CL        140.7428  146.5724  154.0559 Cl      1  UNL1       -0.0806
     32 C         140.0019  146.4449  156.5429 C.ar    1  UNL1        0.1103
     33 N         140.1640  145.8699  157.9187 N.ar    1  UNL1       -0.2387
     34 C         141.2290  144.8474  158.1836 C.ar    1  UNL1        0.1308
@<TRIPOS>BOND
     1    27    28    1
     2    28    29   ar
     3    29    30   ar
     4    30    31    1
     5    30    32   ar
     6    32    33   ar
     7    33    34   ar
     8    34    23    1
     9    23    24    2
    10    23    25   am
    11    25     1    1
    12     1     2   ar
    13     2     3   ar
    14     3     4   ar
    15     4     5   ar
    16     5     6   ar
    17     5     7    1
    18     7     8    1
    19     8     9    1
    20     9    10    1
    21    10    11    1
    22    10    12    2
    23     7    13    1
    24    13    14    1
    25    14    15    1
    26    15    16    1
    27    13    17    1
    28    17    18    1
    29    17    19    1
    30    17    20    1
    31    34    28   ar
    32     6     1   ar
    33    12     7    1
    34    16    13    1
    35    20     4    1
    36    25    26    1
    37    11    21    1
    38    11    22    1
@<TRIPOS>MOLECULE
*****
 34 38 0 0 0
SMALL
GASTEIGER

@<TRIPOS>ATOM
      1 C         139.0496  143.3438  162.7615 C.ar    1  UNL1        0.0505
      2 C         139.5060  144.4977  163.6043 C.ar    1  UNL1        0.0178
      3 C         139.8697  144.2782  165.0429 C.ar    1  UNL1        0.0379
      4 C         139.7770  142.9048  165.6387 C.ar    1  UNL1        0.1361
      5 C         139.3206  141.7509  164.7960 C.ar    1  UNL1        0.0369
      6 C         138.9569  141.9704  163.3574 C.ar    1  UNL1        0.0153
      7 C         139.2278  140.3774  165.3919 C.3     1  UNL1        0.1581
      8 C         139.0861  138.9551  165.8469 C.3     1  UNL1        0.2351
      9 O         138.6037  138.1418  164.6824 O.2     1  UNL1       -0.4478
     10 C         138.4472  139.0615  163.5078 C.2     1  UNL1        0.2770
     11 N         137.9861  138.6685  162.1357 N.pl3   1  UNL1       -0.3133
     12 N         138.8330  140.4432  163.9462 N.2     1  UNL1       -0.2202
     13 C         139.5915  140.1579  166.8305 C.3     1  UNL1        0.1141
     14 C         139.6174  140.5411  166.6642 C.3     1  UNL1        0.1501
     15 O         139.5902  140.1383  166.8390 O.3     1  UNL1       -0.3532
     16 C         139.6174  140.5411  166.6642 C.3     1  UNL1        0.1501
     17 C         140.0479  141.3118  167.6732 C.3     1  UNL1        0.1398
     18 C         140.5303  142.0815  168.8668 C.3     1  UNL1        0.0438
     19 C         140.1227  140.2056  168.6837 C.3     1  UNL1        0.0438
     20 O         140.1406  142.6852  167.0773 O.3     1  UNL1       -0.4826
     21 H         137.7542  137.7312  161.9439 H       1  UNL1        0.1466
     22 H         137.9153  139.3480  161.4268 H       1  UNL1        0.1466
     23 C         139.6231  143.1246  160.2371 C.2     1  UNL1        0.2669
     24 O         140.9240  142.4664  160.5897 O.2     1  UNL1       -0.2682
     25 N         138.6859  143.5633  161.3230 N.am    1  UNL1       -0.2792
     26 H         137.8321  143.9954  161.0915 H       1  UNL1        0.1552
     27 C         140.9756  145.2899  158.6615 C.3     1  UNL1        0.0328
     28 C         139.9356  144.4268  158.0107 C.ar    1  UNL1        0.0012
     29 C         139.5719  144.6463  156.5721 C.ar    1  UNL1        0.0103
     30 C         138.5319  143.7833  155.9214 C.ar    1  UNL1        0.0765
     31 CL        138.1681  144.0028  154.4827 Cl      1  UNL1       -0.0806
     32 C         137.8556  142.7007  156.7091 C.ar    1  UNL1        0.1103
     33 N         138.2194  142.4811  158.1477 N.ar    1  UNL1       -0.2387
     34 C         139.2594  143.3442  158.7984 C.ar    1  UNL1        0.1308
@<TRIPOS>BOND
     1    27    28    1
     2    28    29   ar
     3    29    30   ar
     4    30    31    1
     5    30    32   ar
     6    32    33   ar
     7    33    34   ar
     8    34    23    1
     9    23    24    2
    10    23    25   am
    11    25     1    1
    12     1     2   ar
    13     2     3   ar
    14     3     4   ar
    15     4     5   ar
    16     5     6   ar
    17     5     7    1
    18     7     8    1
    19     8     9    1
    20     9    10    1
    21    10    11    1
    22    10    12    2
    23     7    13    1
    24    13    14    1
    25    14    15    1
    26    15    16    1
    27    13    17    1
    28    17    18    1
    29    17    19    1
    30    17    20    1
    31    34    28   ar
    32     6     1   ar
    33    12     7    1
    34    16    13    1
    35    20     4    1
    36    25    26    1
    37    11    21    1
    38    11    22    1
@<TRIPOS>MOLECULE
*****
 34 38 0 0 0
SMALL
GASTEIGER

@<TRIPOS>ATOM
      1 C         138.3840  141.9285  160.8390 C.ar    1  UNL1        0.0505
      2 C         137.8949  140.5252  160.6353 C.ar    1  UNL1        0.0178
      3 C         137.8478  139.5719  161.7924 C.ar    1  UNL1        0.0379
      4 C         138.2898  140.0219  163.1534 C.ar    1  UNL1        0.1361
      5 C         138.7788  141.4252  163.3572 C.ar    1  UNL1        0.0369
      6 C         138.8260  142.3786  162.2000 C.ar    1  UNL1        0.0153
      7 C         139.2208  141.8753  164.7181 C.3     1  UNL1        0.1581
      8 C         139.6927  142.4651  166.0140 C.3     1  UNL1        0.2351
      9 O         140.0874  143.8896  165.7586 O.2     1  UNL1       -0.4478
     10 C         139.8594  144.1801  164.3048 C.2     1  UNL1        0.2770
     11 N         140.1211  145.4861  163.6151 N.pl3   1  UNL1       -0.3133
     12 N         139.3238  142.9352  163.6617 N.2     1  UNL1       -0.2202
     13 C         139.1737  140.9220  165.8752 C.3     1  UNL1        0.1141
     14 C         139.0504  140.7965  165.4955 C.3     1  UNL1        0.1501
     15 O         139.1800  140.9284  165.8947 O.3     1  UNL1       -0.3532
     16 C         139.0504  140.7965  165.4955 C.3     1  UNL1        0.1501
     17 C         138.6846  139.5187  165.6715 C.3     1  UNL1        0.1398
     18 C         138.3030  138.1007  165.9773 C.3     1  UNL1        0.0438
     19 C         138.9940  139.4762  167.1387 C.3     1  UNL1        0.0438
     20 O         138.2427  139.0687  164.3105 O.3     1  UNL1       -0.4826
     21 H         140.4752  146.2500  164.1254 H       1  UNL1        0.1466
     22 H         139.9387  145.5795  162.6522 H       1  UNL1        0.1466
     23 C         139.7196  143.1070  158.9476 C.2     1  UNL1        0.2669
     24 O         140.9609  142.3789  159.3705 O.2     1  UNL1       -0.2682
     25 N         138.4311  142.8818  159.6819 N.am    1  UNL1       -0.2792
     26 H         137.6164  143.3596  159.4043 H       1  UNL1        0.1552
     27 C         139.1033  142.1348  156.1772 C.3     1  UNL1        0.0328
     28 C         139.4585  143.5742  156.4052 C.ar    1  UNL1        0.0012
     29 C         139.5056  144.5275  155.2481 C.ar    1  UNL1        0.0103
     30 C         139.8608  145.9668  155.4762 C.ar    1  UNL1        0.0765
     31 CL        139.9079  146.9202  154.3190 Cl      1  UNL1       -0.0806
     32 C         140.1689  146.4529  156.8613 C.ar    1  UNL1        0.1103
     33 N         140.1218  145.4996  158.0184 N.ar    1  UNL1       -0.2387
     34 C         139.7666  144.0603  157.7904 C.ar    1  UNL1        0.1308
@<TRIPOS>BOND
     1    27    28    1
     2    28    29   ar
     3    29    30   ar
     4    30    31    1
     5    30    32   ar
     6    32    33   ar
     7    33    34   ar
     8    34    23    1
     9    23    24    2
    10    23    25   am
    11    25     1    1
    12     1     2   ar
    13     2     3   ar
    14     3     4   ar
    15     4     5   ar
    16     5     6   ar
    17     5     7    1
    18     7     8    1
    19     8     9    1
    20     9    10    1
    21    10    11    1
    22    10    12    2
    23     7    13    1
    24    13    14    1
    25    14    15    1
    26    15    16    1
    27    13    17    1
    28    17    18    1
    29    17    19    1
    30    17    20    1
    31    34    28   ar
    32     6     1   ar
    33    12     7    1
    34    16    13    1
    35    20     4    1
    36    25    26    1
    37    11    21    1
    38    11    22    1
@<TRIPOS>MOLECULE
*****
 34 38 0 0 0
SMALL
GASTEIGER

@<TRIPOS>ATOM
      1 C         139.4941  140.2537  164.6164 C.ar    1  UNL1        0.0505
      2 C         138.4368  139.4457  165.3087 C.ar    1  UNL1        0.0178
      3 C         138.4665  139.2927  166.8006 C.ar    1  UNL1        0.0379
      4 C         139.5535  139.9476  167.6002 C.ar    1  UNL1        0.1361
      5 C         140.6109  140.7556  166.9080 C.ar    1  UNL1        0.0369
      6 C         140.5812  140.9086  165.4161 C.ar    1  UNL1        0.0153
      7 C         141.6979  141.4105  167.7076 C.3     1  UNL1        0.1581
      8 C         142.8410  142.1198  168.3711 C.3     1  UNL1        0.2351
      9 O         143.6474  142.7988  167.3038 O.2     1  UNL1       -0.4478
     10 C         143.0027  142.5090  165.9808 C.2     1  UNL1        0.2770
     11 N         143.4791  142.9924  164.6432 N.pl3   1  UNL1       -0.3133
     12 N         141.7978  141.6510  166.2303 N.2     1  UNL1       -0.2202
     13 C         141.7276  141.2574  169.1995 C.3     1  UNL1        0.1141
     14 C         141.4243  141.0747  168.9764 C.3     1  UNL1        0.1501
     15 O         141.7431  141.2668  169.2109 O.3     1  UNL1       -0.3532
     16 C         141.4243  141.0747  168.9764 C.3     1  UNL1        0.1501
     17 C         140.6703  140.4495  169.8917 C.3     1  UNL1        0.1398
     18 C         139.8973  139.7894  170.9947 C.3     1  UNL1        0.0438
     19 C         141.4889  140.8751  171.0745 C.3     1  UNL1        0.0438
     20 O         139.5833  139.7946  169.0920 O.3     1  UNL1       -0.4826
     21 H         144.2852  143.5542  164.5813 H       1  UNL1        0.1466
     22 H         142.9857  142.7478  163.8272 H       1  UNL1        0.1466
     23 C         138.4330  141.2855  162.4812 C.2     1  UNL1        0.2669
     24 O         137.4314  142.0113  163.3296 O.2     1  UNL1       -0.2682
     25 N         139.4644  140.4068  163.1246 N.am    1  UNL1       -0.2792
     26 H         140.1219  139.9304  162.5677 H       1  UNL1        0.1552
     27 C         139.4913  143.7876  161.2085 C.3     1  UNL1        0.0328
     28 C         138.9325  142.6896  160.3530 C.ar    1  UNL1        0.0012
     29 C         138.9028  142.8426  158.8611 C.ar    1  UNL1        0.0103
     30 C         138.3440  141.7445  158.0055 C.ar    1  UNL1        0.0765
     31 CL        138.3143  141.8975  156.5136 Cl      1  UNL1       -0.0806
     32 C         137.8148  140.4935  158.6418 C.ar    1  UNL1        0.1103
     33 N         137.8445  140.3405  160.1337 N.ar    1  UNL1       -0.2387
     34 C         138.4034  141.4386  160.9893 C.ar    1  UNL1        0.1308
@<TRIPOS>BOND
     1    27    28    1
     2    28    29   ar
     3    29    30   ar
     4    30    31    1
     5    30    32   ar
     6    32    33   ar
     7    33    34   ar
     8    34    23    1
     9    23    24    2
    10    23    25   am
    11    25     1    1
    12     1     2   ar
    13     2     3   ar
    14     3     4   ar
    15     4     5   ar
    16     5     6   ar
    17     5     7    1
    18     7     8    1
    19     8     9    1
    20     9    10    1
    21    10    11    1
    22    10    12    2
    23     7    13    1
    24    13    14    1
    25    14    15    1
    26    15    16    1
    27    13    17    1
    28    17    18    1
    29    17    19    1
    30    17    20    1
    31    34    28   ar
    32     6     1   ar
    33    12     7    1
    34    16    13    1
    35    20     4    1
    36    25    26    1
    37    11    21    1
    38    11    22    1
