@<TRIPOS>MOLECULE
*****
 36 40 0 0 0
SMALL
GASTEIGER

@<TRIPOS>ATOM
      1 N         141.9863  139.9060  160.7097 N.am    1  UNL1       -0.2681
      2 C         142.9396  139.2392  161.6566 C.2     1  UNL1        0.3079
      3 O         143.9944  138.3119  161.1299 O.2     1  UNL1       -0.2522
      4 N         142.8380  139.4997  163.1304 N.am    1  UNL1       -0.2594
      5 C         143.7913  138.8330  164.0773 C.3     1  UNL1        0.1016
      6 C         143.6897  139.0935  165.5510 C.3     1  UNL1        0.0672
      7 C         142.6349  140.0208  166.0777 C.ar    1  UNL1        0.0614
      8 N         142.5333  140.2813  167.5515 N.ar    1  UNL1       -0.2310
      9 C         141.4785  141.2086  168.0783 C.ar    1  UNL1        0.1658
     10 N         140.5252  141.8753  167.1313 N.ar    1  UNL1       -0.2267
     11 C         140.6268  141.6148  165.6576 C.ar    1  UNL1        0.0814
     12 C         141.6816  140.6875  165.1308 C.ar    1  UNL1        0.0291
     13 C         141.7832  140.4270  163.6572 C.3     1  UNL1        0.1243
     14 H         141.2940  140.5146  161.0555 H       1  UNL1        0.1564
     15 C         141.3769  141.4691  169.5520 C.ar    1  UNL1        0.0853
     16 C         140.2110  141.1235  170.4301 C.ar    1  UNL1        0.1036
     17 C         138.9419  140.4567  169.9888 C.3     1  UNL1        0.0558
     18 N         140.5369  141.5617  171.8271 N.ar    1  UNL1       -0.0816
     19 O         141.9043  142.1782  171.8124 O.2     1  UNL1       -0.3580
     20 C         142.4235  142.1209  170.4062 C.ar    1  UNL1        0.1573
     21 C         143.7553  142.6267  169.9368 C.3     1  UNL1        0.0755
     22 C         139.6735  142.2816  164.7107 C.ar    1  UNL1        0.0135
     23 C         139.9897  143.6413  164.1618 C.ar    1  UNL1        0.0012
     24 C         139.0363  144.3080  163.2148 C.ar    1  UNL1        0.0000
     25 C         137.7669  143.6151  162.8168 C.ar    1  UNL1       -0.0003
     26 C         137.4508  142.2554  163.3658 C.ar    1  UNL1       -0.0042
     27 C         138.4040  141.5886  164.3127 C.ar    1  UNL1       -0.0204
     28 C         138.0879  140.2290  164.8616 C.3     1  UNL1        0.0311
     29 C         141.3337  138.3297  157.1265 C.ar    1  UNL1       -0.0210
     30 C         142.2908  139.1244  156.2886 C.ar    1  UNL1       -0.0042
     31 C         143.1465  140.1797  156.9244 C.ar    1  UNL1        0.0010
     32 C         143.0450  140.4402  158.3981 C.ar    1  UNL1        0.0147
     33 C         142.0878  139.6455  159.2360 C.ar    1  UNL1        0.0513
     34 C         141.2322  138.5902  158.6002 C.ar    1  UNL1        0.0104
     35 C         141.1141  136.1643  155.7077 C.3     1  UNL1        0.0050
     36 C         140.4780  137.2744  156.4907 C.3     1  UNL1        0.0264
@<TRIPOS>BOND
     1    35    36    1
     2    36    29    1
     3    29    30   ar
     4    30    31   ar
     5    31    32   ar
     6    32    33   ar
     7    33     1    1
     8     1     2   am
     9     2     3    2
    10     2     4   am
    11     4     5    1
    12     5     6    1
    13     6     7    1
    14     7     8   ar
    15     8     9   ar
    16     9    15    1
    17    15    16   ar
    18    16    17    1
    19    16    18   ar
    20    18    19   ar
    21    19    20   ar
    22    20    21    1
    23     9    10   ar
    24    10    11   ar
    25    11    22    1
    26    22    23   ar
    27    23    24   ar
    28    24    25   ar
    29    25    26   ar
    30    26    27   ar
    31    27    28    1
    32    11    12   ar
    33    12    13    1
    34    33    34   ar
    35    34    29   ar
    36    13     4    1
    37    12     7   ar
    38    20    15   ar
    39    27    22   ar
    40     1    14    1
@<TRIPOS>MOLECULE
*****
 36 40 0 0 0
SMALL
GASTEIGER

@<TRIPOS>ATOM
      1 N         139.5673  140.3988  160.8018 N.am    1  UNL1       -0.2681
      2 C         138.8969  139.5004  161.7984 C.2     1  UNL1        0.3079
      3 O         137.9441  138.4404  161.3308 O.2     1  UNL1       -0.2522
      4 N         139.1792  139.6619  163.2628 N.am    1  UNL1       -0.2594
      5 C         138.5088  138.7635  164.2594 C.3     1  UNL1        0.1016
      6 C         138.7911  138.9251  165.7237 C.3     1  UNL1        0.0672
      7 C         139.7439  139.9850  166.1913 C.ar    1  UNL1        0.0614
      8 N         140.0262  140.1466  167.6557 N.ar    1  UNL1       -0.2310
      9 C         140.9790  141.2065  168.1233 C.ar    1  UNL1        0.1658
     10 N         141.6495  142.1050  167.1266 N.ar    1  UNL1       -0.2267
     11 C         141.3672  141.9434  165.6623 C.ar    1  UNL1        0.0814
     12 C         140.4144  140.8834  165.1947 C.ar    1  UNL1        0.0291
     13 C         140.1320  140.7219  163.7304 C.3     1  UNL1        0.1243
     14 H         140.1927  141.0945  161.1087 H       1  UNL1        0.1564
     15 C         141.2614  141.3681  169.5876 C.ar    1  UNL1        0.0853
     16 C         140.9506  142.5786  170.4172 C.ar    1  UNL1        0.1036
     17 C         140.3029  143.8401  169.9281 C.3     1  UNL1        0.0558
     18 N         141.4012  142.3062  171.8217 N.ar    1  UNL1       -0.0816
     19 O         141.9905  140.9273  171.8601 O.2     1  UNL1       -0.3580
     20 C         141.9041  140.3475  170.4794 C.ar    1  UNL1        0.1573
     21 C         142.3773  138.9862  170.0636 C.3     1  UNL1        0.0755
     22 C         142.0376  142.8418  164.6657 C.ar    1  UNL1        0.0135
     23 C         143.4063  142.5041  164.1532 C.ar    1  UNL1        0.0012
     24 C         144.0768  143.4026  163.1565 C.ar    1  UNL1        0.0000
     25 C         143.3785  144.6387  162.6723 C.ar    1  UNL1       -0.0003
     26 C         142.0098  144.9763  163.1848 C.ar    1  UNL1       -0.0042
     27 C         141.3393  144.0779  164.1814 C.ar    1  UNL1       -0.0204
     28 C         139.9706  144.4156  164.6939 C.3     1  UNL1        0.0311
     29 C         137.8993  140.8632  157.2308 C.ar    1  UNL1       -0.0210
     30 C         138.7203  139.9143  156.4089 C.ar    1  UNL1       -0.0042
     31 C         139.8236  139.1268  157.0513 C.ar    1  UNL1        0.0010
     32 C         140.1060  139.2883  158.5156 C.ar    1  UNL1        0.0147
     33 C         139.2850  140.2372  159.3374 C.ar    1  UNL1        0.0513
     34 C         138.1817  141.0247  158.6950 C.ar    1  UNL1        0.0104
     35 C         135.6895  140.9401  155.8668 C.3     1  UNL1        0.0050
     36 C         136.7960  141.6506  156.5884 C.3     1  UNL1        0.0264
@<TRIPOS>BOND
     1    35    36    1
     2    36    29    1
     3    29    30   ar
     4    30    31   ar
     5    31    32   ar
     6    32    33   ar
     7    33     1    1
     8     1     2   am
     9     2     3    2
    10     2     4   am
    11     4     5    1
    12     5     6    1
    13     6     7    1
    14     7     8   ar
    15     8     9   ar
    16     9    15    1
    17    15    16   ar
    18    16    17    1
    19    16    18   ar
    20    18    19   ar
    21    19    20   ar
    22    20    21    1
    23     9    10   ar
    24    10    11   ar
    25    11    22    1
    26    22    23   ar
    27    23    24   ar
    28    24    25   ar
    29    25    26   ar
    30    26    27   ar
    31    27    28    1
    32    11    12   ar
    33    12    13    1
    34    33    34   ar
    35    34    29   ar
    36    13     4    1
    37    12     7   ar
    38    20    15   ar
    39    27    22   ar
    40     1    14    1
@<TRIPOS>MOLECULE
*****
 36 40 0 0 0
SMALL
GASTEIGER

@<TRIPOS>ATOM
      1 N         140.6938  143.8976  160.8695 N.am    1  UNL1       -0.2681
      2 C         139.8152  144.5968  161.8639 C.2     1  UNL1        0.3079
      3 O         138.8699  145.6681  161.4068 O.2     1  UNL1       -0.2522
      4 N         139.8817  144.2249  163.3156 N.am    1  UNL1       -0.2594
      5 C         139.0031  144.9241  164.3101 C.3     1  UNL1        0.1016
      6 C         139.0697  144.5522  165.7616 C.3     1  UNL1        0.0672
      7 C         140.0150  143.4810  166.2188 C.ar    1  UNL1        0.0614
      8 N         140.0815  143.1090  167.6705 N.ar    1  UNL1       -0.2310
      9 C         141.0268  142.0378  168.1276 C.ar    1  UNL1        0.1658
     10 N         141.9055  141.3386  167.1331 N.ar    1  UNL1       -0.2267
     11 C         141.8389  141.7105  165.6815 C.ar    1  UNL1        0.0814
     12 C         140.8936  142.7817  165.2243 C.ar    1  UNL1        0.0291
     13 C         140.8270  143.1537  163.7728 C.3     1  UNL1        0.1243
     14 H         141.3142  143.1945  161.1695 H       1  UNL1        0.1564
     15 C         141.0934  141.6658  169.5792 C.ar    1  UNL1        0.0853
     16 C         140.0831  140.8471  170.3269 C.ar    1  UNL1        0.1036
     17 C         138.8288  140.2565  169.7541 C.3     1  UNL1        0.0558
     18 N         140.5473  140.7225  171.7478 N.ar    1  UNL1       -0.0816
     19 O         141.8445  141.4644  171.8783 O.2     1  UNL1       -0.3580
     20 C         142.1820  142.0473  170.5380 C.ar    1  UNL1        0.1573
     21 C         143.3951  142.8678  170.2137 C.3     1  UNL1        0.0755
     22 C         142.7176  141.0113  164.6870 C.ar    1  UNL1        0.0135
     23 C         142.2615  139.7304  164.0535 C.ar    1  UNL1        0.0012
     24 C         143.1403  139.0311  163.0590 C.ar    1  UNL1        0.0000
     25 C         144.4750  139.6128  162.6981 C.ar    1  UNL1       -0.0003
     26 C         144.9310  140.8937  163.3317 C.ar    1  UNL1       -0.0042
     27 C         144.0523  141.5929  164.3261 C.ar    1  UNL1       -0.0204
     28 C         144.5083  142.8738  164.9596 C.3     1  UNL1        0.0311
     29 C         139.5396  144.0003  157.0738 C.ar    1  UNL1       -0.0210
     30 C         140.4940  145.0134  156.5146 C.ar    1  UNL1       -0.0042
     31 C         141.5150  145.6545  157.4070 C.ar    1  UNL1        0.0010
     32 C         141.5816  145.2826  158.8586 C.ar    1  UNL1        0.0147
     33 C         140.6272  144.2696  159.4178 C.ar    1  UNL1        0.0513
     34 C         139.6062  143.6284  158.5254 C.ar    1  UNL1        0.0104
     35 C         137.5572  142.3540  156.7429 C.3     1  UNL1        0.0050
     36 C         138.5186  143.3591  156.1814 C.3     1  UNL1        0.0264
@<TRIPOS>BOND
     1    35    36    1
     2    36    29    1
     3    29    30   ar
     4    30    31   ar
     5    31    32   ar
     6    32    33   ar
     7    33     1    1
     8     1     2   am
     9     2     3    2
    10     2     4   am
    11     4     5    1
    12     5     6    1
    13     6     7    1
    14     7     8   ar
    15     8     9   ar
    16     9    15    1
    17    15    16   ar
    18    16    17    1
    19    16    18   ar
    20    18    19   ar
    21    19    20   ar
    22    20    21    1
    23     9    10   ar
    24    10    11   ar
    25    11    22    1
    26    22    23   ar
    27    23    24   ar
    28    24    25   ar
    29    25    26   ar
    30    26    27   ar
    31    27    28    1
    32    11    12   ar
    33    12    13    1
    34    33    34   ar
    35    34    29   ar
    36    13     4    1
    37    12     7   ar
    38    20    15   ar
    39    27    22   ar
    40     1    14    1
@<TRIPOS>MOLECULE
*****
 36 40 0 0 0
SMALL
GASTEIGER

@<TRIPOS>ATOM
      1 N         142.0675  140.3569  160.6891 N.am    1  UNL1       -0.2681
      2 C         142.9649  139.5955  161.6191 C.2     1  UNL1        0.3079
      3 O         143.9873  138.6475  161.0660 O.2     1  UNL1       -0.2522
      4 N         142.8399  139.7821  163.1022 N.am    1  UNL1       -0.2594
      5 C         143.7372  139.0207  164.0322 C.3     1  UNL1        0.1016
      6 C         143.6122  139.2074  165.5153 C.3     1  UNL1        0.0672
      7 C         142.5898  140.1554  166.0683 C.ar    1  UNL1        0.0614
      8 N         142.4648  140.3420  167.5515 N.ar    1  UNL1       -0.2310
      9 C         141.4423  141.2900  168.1045 C.ar    1  UNL1        0.1658
     10 N         140.5449  142.0514  167.1745 N.ar    1  UNL1       -0.2267
     11 C         140.6699  141.8648  165.6914 C.ar    1  UNL1        0.0814
     12 C         141.6924  140.9168  165.1383 C.ar    1  UNL1        0.0291
     13 C         141.8174  140.7302  163.6553 C.3     1  UNL1        0.1243
     14 H         141.3964  140.9792  161.0521 H       1  UNL1        0.1564
     15 C         141.3173  141.4766  169.5876 C.ar    1  UNL1        0.0853
     16 C         142.3384  142.1096  170.4858 C.ar    1  UNL1        0.1036
     17 C         143.6638  142.6670  170.0586 C.3     1  UNL1        0.0558
     18 N         141.8014  142.0872  171.8862 N.ar    1  UNL1       -0.0816
     19 O         140.4483  141.4404  171.8534 O.2     1  UNL1       -0.3580
     20 C         140.1492  141.0631  170.4328 C.ar    1  UNL1        0.1573
     21 C         138.9010  140.3904  169.9435 C.3     1  UNL1        0.0755
     22 C         139.7725  142.6262  164.7614 C.ar    1  UNL1        0.0135
     23 C         140.1642  143.9975  164.2966 C.ar    1  UNL1        0.0012
     24 C         139.2667  144.7589  163.3666 C.ar    1  UNL1        0.0000
     25 C         137.9777  144.1490  162.9014 C.ar    1  UNL1       -0.0003
     26 C         137.5861  142.7777  163.3663 C.ar    1  UNL1       -0.0042
     27 C         138.4835  142.0163  164.2963 C.ar    1  UNL1       -0.0204
     28 C         138.0919  140.6449  164.7611 C.3     1  UNL1        0.0311
     29 C         143.3706  140.7306  156.9592 C.ar    1  UNL1       -0.0210
     30 C         142.4426  139.7972  156.2398 C.ar    1  UNL1       -0.0042
     31 C         141.3895  139.0504  157.0036 C.ar    1  UNL1        0.0010
     32 C         141.2645  139.2369  158.4866 C.ar    1  UNL1        0.0147
     33 C         142.1925  140.1703  159.2060 C.ar    1  UNL1        0.0513
     34 C         143.2455  140.9172  158.4422 C.ar    1  UNL1        0.0104
     35 C         145.6284  142.0150  156.9092 C.3     1  UNL1        0.0050
     36 C         144.4236  141.4775  156.1954 C.3     1  UNL1        0.0264
@<TRIPOS>BOND
     1    35    36    1
     2    36    29    1
     3    29    30   ar
     4    30    31   ar
     5    31    32   ar
     6    32    33   ar
     7    33     1    1
     8     1     2   am
     9     2     3    2
    10     2     4   am
    11     4     5    1
    12     5     6    1
    13     6     7    1
    14     7     8   ar
    15     8     9   ar
    16     9    15    1
    17    15    16   ar
    18    16    17    1
    19    16    18   ar
    20    18    19   ar
    21    19    20   ar
    22    20    21    1
    23     9    10   ar
    24    10    11   ar
    25    11    22    1
    26    22    23   ar
    27    23    24   ar
    28    24    25   ar
    29    25    26   ar
    30    26    27   ar
    31    27    28    1
    32    11    12   ar
    33    12    13    1
    34    33    34   ar
    35    34    29   ar
    36    13     4    1
    37    12     7   ar
    38    20    15   ar
    39    27    22   ar
    40     1    14    1
@<TRIPOS>MOLECULE
*****
 36 40 0 0 0
SMALL
GASTEIGER

@<TRIPOS>ATOM
      1 N         139.6323  140.6431  160.7479 N.am    1  UNL1       -0.2681
      2 C         138.7527  139.9532  161.7480 C.2     1  UNL1        0.3079
      3 O         137.5953  139.1212  161.2809 O.2     1  UNL1       -0.2522
      4 N         139.0305  140.0952  163.2153 N.am    1  UNL1       -0.2594
      5 C         138.1509  139.4053  164.2153 C.3     1  UNL1        0.1016
      6 C         138.4287  139.5474  165.6825 C.3     1  UNL1        0.0672
      7 C         139.5861  140.3794  166.1496 C.ar    1  UNL1        0.0614
      8 N         139.8638  140.5214  167.6168 N.ar    1  UNL1       -0.2310
      9 C         141.0212  141.3534  168.0839 C.ar    1  UNL1        0.1658
     10 N         141.9009  142.0434  167.0838 N.ar    1  UNL1       -0.2267
     11 C         141.6231  141.9013  165.6166 C.ar    1  UNL1        0.0814
     12 C         140.4657  141.0693  165.1495 C.ar    1  UNL1        0.0291
     13 C         140.1879  140.9272  163.6824 C.3     1  UNL1        0.1243
     14 H         140.3920  141.1892  161.0545 H       1  UNL1        0.1564
     15 C         141.2990  141.4955  169.5511 C.ar    1  UNL1        0.0853
     16 C         141.9111  140.4518  170.4377 C.ar    1  UNL1        0.1036
     17 C         142.3529  139.0828  170.0127 C.3     1  UNL1        0.0558
     18 N         142.0039  141.0174  171.8238 N.ar    1  UNL1       -0.0816
     19 O         141.4491  142.4108  171.7939 O.2     1  UNL1       -0.3580
     20 C         141.0135  142.7062  170.3893 C.ar    1  UNL1        0.1573
     21 C         140.4000  143.9874  169.9075 C.3     1  UNL1        0.0755
     22 C         142.5027  142.5913  164.6165 C.ar    1  UNL1        0.0135
     23 C         142.1562  143.9700  164.1380 C.ar    1  UNL1        0.0012
     24 C         143.0359  144.6599  163.1378 C.ar    1  UNL1        0.0000
     25 C         144.2620  143.9711  162.6163 C.ar    1  UNL1       -0.0003
     26 C         144.6086  142.5924  163.0949 C.ar    1  UNL1       -0.0042
     27 C         143.7290  141.9025  164.0949 C.ar    1  UNL1       -0.0204
     28 C         144.0755  140.5237  164.5735 C.3     1  UNL1        0.0311
     29 C         139.3953  139.0725  157.1111 C.ar    1  UNL1       -0.0210
     30 C         138.7991  140.2169  156.3464 C.ar    1  UNL1       -0.0042
     31 C         138.4807  141.5034  157.0488 C.ar    1  UNL1        0.0010
     32 C         138.7584  141.6455  158.5160 C.ar    1  UNL1        0.0147
     33 C         139.3546  140.5011  159.2807 C.ar    1  UNL1        0.0513
     34 C         139.6730  139.2146  158.5782 C.ar    1  UNL1        0.0104
     35 C         139.0457  137.4572  155.1064 C.3     1  UNL1        0.0050
     36 C         139.7137  137.7860  156.4086 C.3     1  UNL1        0.0264
@<TRIPOS>BOND
     1    35    36    1
     2    36    29    1
     3    29    30   ar
     4    30    31   ar
     5    31    32   ar
     6    32    33   ar
     7    33     1    1
     8     1     2   am
     9     2     3    2
    10     2     4   am
    11     4     5    1
    12     5     6    1
    13     6     7    1
    14     7     8   ar
    15     8     9   ar
    16     9    15    1
    17    15    16   ar
    18    16    17    1
    19    16    18   ar
    20    18    19   ar
    21    19    20   ar
    22    20    21    1
    23     9    10   ar
    24    10    11   ar
    25    11    22    1
    26    22    23   ar
    27    23    24   ar
    28    24    25   ar
    29    25    26   ar
    30    26    27   ar
    31    27    28    1
    32    11    12   ar
    33    12    13    1
    34    33    34   ar
    35    34    29   ar
    36    13     4    1
    37    12     7   ar
    38    20    15   ar
    39    27    22   ar
    40     1    14    1
@<TRIPOS>MOLECULE
*****
 36 40 0 0 0
SMALL
GASTEIGER

@<TRIPOS>ATOM
      1 N         142.9808  141.6872  160.6679 N.am    1  UNL1       -0.2681
      2 C         143.8306  142.5056  161.5941 C.2     1  UNL1        0.3079
      3 O         144.9352  143.3574  161.0425 O.2     1  UNL1       -0.2522
      4 N         143.5760  142.4722  163.0720 N.am    1  UNL1       -0.2594
      5 C         144.4259  143.2906  163.9982 C.3     1  UNL1        0.1016
      6 C         144.1712  143.2572  165.4760 C.3     1  UNL1        0.0672
      7 C         143.0666  142.4054  166.0276 C.ar    1  UNL1        0.0614
      8 N         142.8119  142.3720  167.5055 N.ar    1  UNL1       -0.2310
      9 C         141.7073  141.5202  168.0571 C.ar    1  UNL1        0.1658
     10 N         140.8574  140.7017  167.1309 N.ar    1  UNL1       -0.2267
     11 C         141.1121  140.7351  165.6531 C.ar    1  UNL1        0.0814
     12 C         142.2167  141.5870  165.1014 C.ar    1  UNL1        0.0291
     13 C         142.4714  141.6204  163.6236 C.3     1  UNL1        0.1243
     14 H         142.2558  141.1281  161.0300 H       1  UNL1        0.1564
     15 C         141.4526  141.4867  169.5349 C.ar    1  UNL1        0.0853
     16 C         140.8262  142.5816  170.3467 C.ar    1  UNL1        0.1036
     17 C         140.3444  143.9021  169.8230 C.3     1  UNL1        0.0558
     18 N         140.7660  142.1241  171.7739 N.ar    1  UNL1       -0.0816
     19 O         141.3554  140.7465  171.8443 O.2     1  UNL1       -0.3580
     20 C         141.7797  140.3526  170.4605 C.ar    1  UNL1        0.1573
     21 C         142.4189  139.0528  170.0708 C.3     1  UNL1        0.0755
     22 C         140.2622  139.9167  164.7269 C.ar    1  UNL1        0.0135
     23 C         139.0192  140.5078  164.1306 C.ar    1  UNL1        0.0012
     24 C         138.1693  139.6893  163.2044 C.ar    1  UNL1        0.0000
     25 C         138.5624  138.2798  162.8745 C.ar    1  UNL1       -0.0003
     26 C         139.8055  137.6888  163.4707 C.ar    1  UNL1       -0.0042
     27 C         140.6554  138.5072  164.3969 C.ar    1  UNL1       -0.0204
     28 C         141.8984  137.9162  164.9931 C.3     1  UNL1        0.0311
     29 C         142.9998  142.9107  156.8926 C.ar    1  UNL1       -0.0210
     30 C         143.7447  141.7875  156.2344 C.ar    1  UNL1       -0.0042
     31 C         144.2350  140.6308  157.0539 C.ar    1  UNL1        0.0010
     32 C         143.9804  140.5974  158.5318 C.ar    1  UNL1        0.0147
     33 C         143.2354  141.7206  159.1900 C.ar    1  UNL1        0.0513
     34 C         142.7451  142.8773  158.3704 C.ar    1  UNL1        0.0104
     35 C         141.4278  144.9593  156.6063 C.3     1  UNL1        0.0050
     36 C         142.5095  144.0674  156.0730 C.3     1  UNL1        0.0264
@<TRIPOS>BOND
     1    35    36    1
     2    36    29    1
     3    29    30   ar
     4    30    31   ar
     5    31    32   ar
     6    32    33   ar
     7    33     1    1
     8     1     2   am
     9     2     3    2
    10     2     4   am
    11     4     5    1
    12     5     6    1
    13     6     7    1
    14     7     8   ar
    15     8     9   ar
    16     9    15    1
    17    15    16   ar
    18    16    17    1
    19    16    18   ar
    20    18    19   ar
    21    19    20   ar
    22    20    21    1
    23     9    10   ar
    24    10    11   ar
    25    11    22    1
    26    22    23   ar
    27    23    24   ar
    28    24    25   ar
    29    25    26   ar
    30    26    27   ar
    31    27    28    1
    32    11    12   ar
    33    12    13    1
    34    33    34   ar
    35    34    29   ar
    36    13     4    1
    37    12     7   ar
    38    20    15   ar
    39    27    22   ar
    40     1    14    1
@<TRIPOS>MOLECULE
*****
 36 40 0 0 0
SMALL
GASTEIGER

@<TRIPOS>ATOM
      1 N         139.8649  142.7034  160.6020 N.am    1  UNL1       -0.2681
      2 C         139.6218  143.8318  161.5599 C.2     1  UNL1        0.3079
      3 O         139.2005  145.1759  161.0441 O.2     1  UNL1       -0.2522
      4 N         139.8000  143.6162  163.0337 N.am    1  UNL1       -0.2594
      5 C         139.5569  144.7446  163.9915 C.3     1  UNL1        0.1016
      6 C         139.7351  144.5289  165.4652 C.3     1  UNL1        0.0672
      7 C         140.1564  143.1849  165.9809 C.ar    1  UNL1        0.0614
      8 N         140.3346  142.9693  167.4547 N.ar    1  UNL1       -0.2310
      9 C         140.7559  141.6252  167.9705 C.ar    1  UNL1        0.1658
     10 N         140.9990  140.4968  167.0125 N.ar    1  UNL1       -0.2267
     11 C         140.8208  140.7124  165.5389 C.ar    1  UNL1        0.0814
     12 C         140.3995  142.0565  165.0231 C.ar    1  UNL1        0.0291
     13 C         140.2213  142.2721  163.5494 C.3     1  UNL1        0.1243
     14 H         140.1415  141.8213  160.9406 H       1  UNL1        0.1564
     15 C         140.9341  141.4096  169.4441 C.ar    1  UNL1        0.0853
     16 C         139.9290  140.7960  170.3733 C.ar    1  UNL1        0.1036
     17 C         138.5693  140.2905  169.9920 C.3     1  UNL1        0.0558
     18 N         140.5224  140.7769  171.7508 N.ar    1  UNL1       -0.0816
     19 O         141.8943  141.3786  171.6729 O.2     1  UNL1       -0.3580
     20 C         142.1487  141.7696  170.2473 C.ar    1  UNL1        0.1573
     21 C         143.3983  142.4084  169.7179 C.3     1  UNL1        0.0755
     22 C         141.0640  139.5840  164.5810 C.ar    1  UNL1        0.0135
     23 C         142.4055  139.4306  163.9278 C.ar    1  UNL1        0.0012
     24 C         142.6486  138.3021  162.9698 C.ar    1  UNL1        0.0000
     25 C         141.5502  137.3272  162.6652 C.ar    1  UNL1       -0.0003
     26 C         140.2086  137.4806  163.3184 C.ar    1  UNL1       -0.0042
     27 C         139.9655  138.6090  164.2763 C.ar    1  UNL1       -0.0204
     28 C         138.6239  138.7625  164.9295 C.3     1  UNL1        0.0311
     29 C         138.2205  142.7476  156.9904 C.ar    1  UNL1       -0.0210
     30 C         139.3303  143.3502  156.1810 C.ar    1  UNL1       -0.0042
     31 C         140.6183  143.7373  156.8452 C.ar    1  UNL1        0.0010
     32 C         140.7965  143.5217  158.3189 C.ar    1  UNL1        0.0147
     33 C         139.6867  142.9190  159.1283 C.ar    1  UNL1        0.0513
     34 C         138.3987  142.5320  158.4640 C.ar    1  UNL1        0.0104
     35 C         136.8855  141.1665  155.4194 C.3     1  UNL1        0.0050
     36 C         136.9325  142.3605  156.3261 C.3     1  UNL1        0.0264
@<TRIPOS>BOND
     1    35    36    1
     2    36    29    1
     3    29    30   ar
     4    30    31   ar
     5    31    32   ar
     6    32    33   ar
     7    33     1    1
     8     1     2   am
     9     2     3    2
    10     2     4   am
    11     4     5    1
    12     5     6    1
    13     6     7    1
    14     7     8   ar
    15     8     9   ar
    16     9    15    1
    17    15    16   ar
    18    16    17    1
    19    16    18   ar
    20    18    19   ar
    21    19    20   ar
    22    20    21    1
    23     9    10   ar
    24    10    11   ar
    25    11    22    1
    26    22    23   ar
    27    23    24   ar
    28    24    25   ar
    29    25    26   ar
    30    26    27   ar
    31    27    28    1
    32    11    12   ar
    33    12    13    1
    34    33    34   ar
    35    34    29   ar
    36    13     4    1
    37    12     7   ar
    38    20    15   ar
    39    27    22   ar
    40     1    14    1
@<TRIPOS>MOLECULE
*****
 36 40 0 0 0
SMALL
GASTEIGER

@<TRIPOS>ATOM
      1 N         142.6543  142.3289  160.7025 N.am    1  UNL1       -0.2681
      2 C         143.6876  142.8106  161.6773 C.2     1  UNL1        0.3079
      3 O         144.9798  143.3854  161.1776 O.2     1  UNL1       -0.2522
      4 N         143.4286  142.7176  163.1519 N.am    1  UNL1       -0.2594
      5 C         144.4618  143.1994  164.1267 C.3     1  UNL1        0.1016
      6 C         144.2028  143.1063  165.6012 C.3     1  UNL1        0.0672
      7 C         142.9106  142.5315  166.1009 C.ar    1  UNL1        0.0614
      8 N         142.6516  142.4385  167.5755 N.ar    1  UNL1       -0.2310
      9 C         141.3593  141.8638  168.0752 C.ar    1  UNL1        0.1658
     10 N         140.3260  141.3820  167.1003 N.ar    1  UNL1       -0.2267
     11 C         140.5851  141.4750  165.6258 C.ar    1  UNL1        0.0814
     12 C         141.8773  142.0498  165.1261 C.ar    1  UNL1        0.0291
     13 C         142.1363  142.1428  163.6516 C.3     1  UNL1        0.1243
     14 H         141.8062  141.9516  161.0305 H       1  UNL1        0.1564
     15 C         141.1003  141.7707  169.5497 C.ar    1  UNL1        0.0853
     16 C         141.3543  140.5725  170.4157 C.ar    1  UNL1        0.1036
     17 C         141.9120  139.2570  169.9591 C.3     1  UNL1        0.0558
     18 N         140.9528  140.9208  171.8183 N.ar    1  UNL1       -0.0816
     19 O         140.4506  142.3343  171.8192 O.2     1  UNL1       -0.3580
     20 C         140.5418  142.8595  170.4172 C.ar    1  UNL1        0.1573
     21 C         140.1442  144.2325  169.9624 C.3     1  UNL1        0.0755
     22 C         139.5518  140.9933  164.6510 C.ar    1  UNL1        0.0135
     23 C         139.5989  139.5822  164.1443 C.ar    1  UNL1        0.0012
     24 C         138.5656  139.1005  163.1694 C.ar    1  UNL1        0.0000
     25 C         137.4853  140.0298  162.7013 C.ar    1  UNL1       -0.0003
     26 C         137.4381  141.4409  163.2080 C.ar    1  UNL1       -0.0042
     27 C         138.4714  141.9226  164.1828 C.ar    1  UNL1       -0.0204
     28 C         138.4242  143.3336  164.6896 C.3     1  UNL1        0.0311
     29 C         142.7451  143.7349  156.9924 C.ar    1  UNL1       -0.0210
     30 C         143.4312  142.6080  156.2789 C.ar    1  UNL1       -0.0042
     31 C         143.8585  141.3880  157.0399 C.ar    1  UNL1        0.0010
     32 C         143.5995  141.2950  158.5144 C.ar    1  UNL1        0.0147
     33 C         142.9133  142.4219  159.2279 C.ar    1  UNL1        0.0513
     34 C         142.4861  143.6419  158.4669 C.ar    1  UNL1        0.0104
     35 C         141.2132  145.8206  156.7609 C.3     1  UNL1        0.0050
     36 C         142.3178  144.9549  156.2314 C.3     1  UNL1        0.0264
@<TRIPOS>BOND
     1    35    36    1
     2    36    29    1
     3    29    30   ar
     4    30    31   ar
     5    31    32   ar
     6    32    33   ar
     7    33     1    1
     8     1     2   am
     9     2     3    2
    10     2     4   am
    11     4     5    1
    12     5     6    1
    13     6     7    1
    14     7     8   ar
    15     8     9   ar
    16     9    15    1
    17    15    16   ar
    18    16    17    1
    19    16    18   ar
    20    18    19   ar
    21    19    20   ar
    22    20    21    1
    23     9    10   ar
    24    10    11   ar
    25    11    22    1
    26    22    23   ar
    27    23    24   ar
    28    24    25   ar
    29    25    26   ar
    30    26    27   ar
    31    27    28    1
    32    11    12   ar
    33    12    13    1
    34    33    34   ar
    35    34    29   ar
    36    13     4    1
    37    12     7   ar
    38    20    15   ar
    39    27    22   ar
    40     1    14    1
@<TRIPOS>MOLECULE
*****
 36 40 0 0 0
SMALL
GASTEIGER

@<TRIPOS>ATOM
      1 N         140.5491  139.9885  164.4493 N.am    1  UNL1       -0.2681
      2 C         141.3066  138.8734  163.7916 C.2     1  UNL1        0.3079
      3 O         141.2840  137.4973  164.3882 O.2     1  UNL1       -0.2522
      4 N         142.0866  139.1342  162.5371 N.am    1  UNL1       -0.2594
      5 C         142.8441  138.0191  161.8794 C.3     1  UNL1        0.1016
      6 C         143.6241  138.2799  160.6250 C.3     1  UNL1        0.0672
      7 C         143.6466  139.6560  160.0284 C.ar    1  UNL1        0.0614
      8 N         144.4267  139.9168  158.7739 N.ar    1  UNL1       -0.2310
      9 C         144.4492  141.2929  158.1773 C.ar    1  UNL1        0.1658
     10 N         143.6917  142.4081  158.8351 N.ar    1  UNL1       -0.2267
     11 C         142.9117  142.1472  160.0895 C.ar    1  UNL1        0.0814
     12 C         142.8892  140.7711  160.6861 C.ar    1  UNL1        0.0291
     13 C         142.1092  140.5103  161.9405 C.3     1  UNL1        0.1243
     14 H         140.5639  140.8917  164.0577 H       1  UNL1        0.1564
     15 C         145.2292  141.5538  156.9229 C.ar    1  UNL1        0.0853
     16 C         144.8907  141.0463  155.5525 C.ar    1  UNL1        0.1036
     17 C         143.7127  140.1889  155.1959 C.3     1  UNL1        0.0558
     18 N         145.9369  141.5468  154.6013 N.ar    1  UNL1       -0.0816
     19 O         146.9221  142.3636  155.3839 O.2     1  UNL1       -0.3580
     20 C         146.4847  142.3679  156.8187 C.ar    1  UNL1        0.1573
     21 C         147.1807  143.0641  157.9505 C.3     1  UNL1        0.0755
     22 C         142.1543  143.2624  160.7472 C.ar    1  UNL1        0.0135
     23 C         140.7772  143.6173  160.2700 C.ar    1  UNL1        0.0012
     24 C         140.0198  144.7325  160.9278 C.ar    1  UNL1        0.0000
     25 C         140.6394  145.4927  162.0627 C.ar    1  UNL1       -0.0003
     26 C         142.0165  145.1378  162.5399 C.ar    1  UNL1       -0.0042
     27 C         142.7739  144.0227  161.8821 C.ar    1  UNL1       -0.0204
     28 C         144.1510  143.6677  162.3593 C.3     1  UNL1        0.0311
     29 C         139.4795  140.0014  168.2710 C.ar    1  UNL1       -0.0210
     30 C         138.2091  139.2060  168.2125 C.ar    1  UNL1       -0.0042
     31 C         137.7187  138.6715  166.8996 C.ar    1  UNL1        0.0010
     32 C         138.4987  138.9323  165.6452 C.ar    1  UNL1        0.0147
     33 C         139.7691  139.7277  165.7037 C.ar    1  UNL1        0.0513
     34 C         140.2595  140.2622  167.0166 C.ar    1  UNL1        0.0104
     35 C         139.8906  142.0059  169.8720 C.3     1  UNL1        0.0050
     36 C         139.9699  140.5360  169.5840 C.3     1  UNL1        0.0264
@<TRIPOS>BOND
     1    35    36    1
     2    36    29    1
     3    29    30   ar
     4    30    31   ar
     5    31    32   ar
     6    32    33   ar
     7    33     1    1
     8     1     2   am
     9     2     3    2
    10     2     4   am
    11     4     5    1
    12     5     6    1
    13     6     7    1
    14     7     8   ar
    15     8     9   ar
    16     9    15    1
    17    15    16   ar
    18    16    17    1
    19    16    18   ar
    20    18    19   ar
    21    19    20   ar
    22    20    21    1
    23     9    10   ar
    24    10    11   ar
    25    11    22    1
    26    22    23   ar
    27    23    24   ar
    28    24    25   ar
    29    25    26   ar
    30    26    27   ar
    31    27    28    1
    32    11    12   ar
    33    12    13    1
    34    33    34   ar
    35    34    29   ar
    36    13     4    1
    37    12     7   ar
    38    20    15   ar
    39    27    22   ar
    40     1    14    1
