@<TRIPOS>MOLECULE
*****
 28 31 0 0 0
SMALL
GASTEIGER

@<TRIPOS>ATOM
      1 C         143.8795  142.5076  169.9190 C.3     1  UNL1        0.0742
      2 C         142.5065  142.1348  170.3943 C.ar    1  UNL1        0.1472
      3 N         141.9242  142.4483  171.7407 N.ar    1  UNL1       -0.1333
      4 N         140.5326  141.8903  171.7852 N.ar    1  UNL1       -0.1333
      5 C         140.2548  141.2319  170.4663 C.ar    1  UNL1        0.1471
      6 N         141.4747  141.3830  169.6068 N.ar    1  UNL1       -0.2810
      7 C         141.4885  140.8166  168.2179 C.ar    1  UNL1        0.0622
      8 C         142.7084  140.9677  167.3583 C.ar    1  UNL1        0.0173
      9 C         142.7221  140.4012  165.9695 C.ar    1  UNL1        0.0015
     10 C         141.5159  139.6836  165.4402 C.ar    1  UNL1        0.0013
     11 C         140.2960  139.5325  166.2998 C.ar    1  UNL1       -0.0028
     12 C         140.2823  140.0989  167.6886 C.ar    1  UNL1       -0.0056
     13 C         139.0623  139.9478  168.5483 C.3     1  UNL1        0.0358
     14 C         139.0486  140.5143  169.9371 C.3     1  UNL1        0.0709
     15 C         141.5297  139.1171  164.0513 C.ar    1  UNL1        0.0189
     16 C         140.9098  137.7782  163.7813 C.ar    1  UNL1        0.0988
     17 N         140.9236  137.2117  162.3924 N.ar    1  UNL1       -0.2426
     18 C         141.5573  137.9842  161.2736 C.ar    1  UNL1        0.0971
     19 C         142.1771  139.3232  161.5437 C.ar    1  UNL1        0.0289
     20 C         142.1633  139.8896  162.9325 C.ar    1  UNL1        0.0013
     21 C         142.8108  140.0958  160.4249 C.3     1  UNL1        0.1959
     22 C         143.4444  140.8683  159.3061 C.3     1  UNL1        0.0428
     23 O         141.6269  139.8022  159.5517 O.3     1  UNL1       -0.3751
     24 H         140.8393  139.6814  160.1048 H       1  UNL1        0.2110
     25 C         143.9946  140.3893  161.2980 C.3     1  UNL1        0.4231
     26 F         145.1784  140.6828  162.1712 F       1  UNL1       -0.1673
     27 F         143.8050  141.8228  161.6967 F       1  UNL1       -0.1673
     28 F         144.4852  138.9850  161.1049 F       1  UNL1       -0.1673
@<TRIPOS>BOND
     1     1     2    1
     2     2     3   ar
     3     3     4   ar
     4     4     5   ar
     5     5     6   ar
     6     6     7    1
     7     7     8   ar
     8     8     9   ar
     9     9    10   ar
    10    10    15    1
    11    15    16   ar
    12    16    17   ar
    13    17    18   ar
    14    18    19   ar
    15    19    21    1
    16    21    22    1
    17    21    23    1
    18    21    25    1
    19    25    26    1
    20    25    27    1
    21    25    28    1
    22    19    20   ar
    23    10    11   ar
    24    11    12   ar
    25    12    13    1
    26    13    14    1
    27     6     2   ar
    28    12     7   ar
    29    14     5    1
    30    20    15   ar
    31    23    24    1
@<TRIPOS>MOLECULE
*****
 28 31 0 0 0
SMALL
GASTEIGER

@<TRIPOS>ATOM
      1 C         143.8079  142.4707  169.8637 C.3     1  UNL1        0.0742
      2 C         142.4434  142.0362  170.3100 C.ar    1  UNL1        0.1472
      3 N         141.8477  142.2585  171.6686 N.ar    1  UNL1       -0.1333
      4 N         140.4711  141.6628  171.6743 N.ar    1  UNL1       -0.1333
      5 C         140.2160  141.0723  170.3192 C.ar    1  UNL1        0.1471
      6 N         141.4349  141.3031  169.4761 N.ar    1  UNL1       -0.2810
      7 C         141.4691  140.8158  168.0578 C.ar    1  UNL1        0.0622
      8 C         142.6880  141.0466  167.2146 C.ar    1  UNL1        0.0173
      9 C         142.7221  140.5593  165.7964 C.ar    1  UNL1        0.0015
     10 C         141.5374  139.8413  165.2214 C.ar    1  UNL1        0.0013
     11 C         140.3184  139.6105  166.0645 C.ar    1  UNL1       -0.0028
     12 C         140.2843  140.0978  167.4827 C.ar    1  UNL1       -0.0056
     13 C         139.0653  139.8670  168.3259 C.3     1  UNL1        0.0358
     14 C         139.0312  140.3543  169.7441 C.3     1  UNL1        0.0709
     15 C         141.5715  139.3540  163.8031 C.ar    1  UNL1        0.0189
     16 C         142.6431  138.4011  163.3630 C.ar    1  UNL1        0.0988
     17 N         142.6773  137.9139  161.9447 N.ar    1  UNL1       -0.2426
     18 C         141.6399  138.3795  160.9666 C.ar    1  UNL1        0.0971
     19 C         140.5682  139.3325  161.4067 C.ar    1  UNL1        0.0289
     20 C         140.5341  139.8197  162.8249 C.ar    1  UNL1        0.0013
     21 C         139.5308  139.7981  160.4285 C.3     1  UNL1        0.1959
     22 C         138.4933  140.2638  159.4503 C.3     1  UNL1        0.0428
     23 O         140.5976  140.4731  159.6183 O.3     1  UNL1       -0.3751
     24 H         141.4400  140.0084  159.7419 H       1  UNL1        0.2110
     25 C         138.4640  139.1231  161.2386 C.3     1  UNL1        0.4231
     26 F         137.3971  138.4482  162.0487 F       1  UNL1       -0.1673
     27 F         138.8153  137.6670  161.1602 F       1  UNL1       -0.1673
     28 F         137.8357  140.4555  161.5215 F       1  UNL1       -0.1673
@<TRIPOS>BOND
     1     1     2    1
     2     2     3   ar
     3     3     4   ar
     4     4     5   ar
     5     5     6   ar
     6     6     7    1
     7     7     8   ar
     8     8     9   ar
     9     9    10   ar
    10    10    15    1
    11    15    16   ar
    12    16    17   ar
    13    17    18   ar
    14    18    19   ar
    15    19    21    1
    16    21    22    1
    17    21    23    1
    18    21    25    1
    19    25    26    1
    20    25    27    1
    21    25    28    1
    22    19    20   ar
    23    10    11   ar
    24    11    12   ar
    25    12    13    1
    26    13    14    1
    27     6     2   ar
    28    12     7   ar
    29    14     5    1
    30    20    15   ar
    31    23    24    1
@<TRIPOS>MOLECULE
*****
 28 31 0 0 0
SMALL
GASTEIGER

@<TRIPOS>ATOM
      1 C         140.3229  144.0649  169.7622 C.3     1  UNL1        0.0742
      2 C         140.6603  142.7365  170.3718 C.ar    1  UNL1        0.1472
      3 N         140.3955  142.3243  171.7895 N.ar    1  UNL1       -0.1333
      4 N         140.8933  140.9202  171.9647 N.ar    1  UNL1       -0.1333
      5 C         141.4657  140.4646  170.6552 C.ar    1  UNL1        0.1471
      6 N         141.3217  141.5872  169.6708 N.ar    1  UNL1       -0.2810
      7 C         141.8115  141.4178  168.2631 C.ar    1  UNL1        0.0622
      8 C         141.6676  142.5403  167.2787 C.ar    1  UNL1        0.0173
      9 C         142.1573  142.3709  165.8711 C.ar    1  UNL1        0.0015
     10 C         142.7911  141.0789  165.4479 C.ar    1  UNL1        0.0013
     11 C         142.9351  139.9563  166.4323 C.ar    1  UNL1       -0.0028
     12 C         142.4453  140.1258  167.8399 C.ar    1  UNL1       -0.0056
     13 C         142.5893  139.0032  168.8244 C.3     1  UNL1        0.0358
     14 C         142.0995  139.1726  170.2320 C.3     1  UNL1        0.0709
     15 C         143.2809  140.9095  164.0403 C.ar    1  UNL1        0.0189
     16 C         144.6367  141.4198  163.6514 C.ar    1  UNL1        0.0988
     17 N         145.1265  141.2504  162.2437 N.ar    1  UNL1       -0.2426
     18 C         144.2604  140.5707  161.2250 C.ar    1  UNL1        0.0971
     19 C         142.9045  140.0604  161.6139 C.ar    1  UNL1        0.0289
     20 C         142.4148  140.2298  163.0215 C.ar    1  UNL1        0.0013
     21 C         142.0384  139.3807  160.5951 C.3     1  UNL1        0.1959
     22 C         141.1723  138.7009  159.5764 C.3     1  UNL1        0.0428
     23 O         142.2867  140.5051  159.6339 O.3     1  UNL1       -0.3751
     24 H         143.1497  140.9062  159.8214 H       1  UNL1        0.2110
     25 C         141.7902  138.2562  161.5564 C.3     1  UNL1        0.4231
     26 F         141.5420  137.1318  162.5177 F       1  UNL1       -0.1673
     27 F         143.1381  137.6205  161.7273 F       1  UNL1       -0.1673
     28 F         140.3392  138.6309  161.6200 F       1  UNL1       -0.1673
@<TRIPOS>BOND
     1     1     2    1
     2     2     3   ar
     3     3     4   ar
     4     4     5   ar
     5     5     6   ar
     6     6     7    1
     7     7     8   ar
     8     8     9   ar
     9     9    10   ar
    10    10    15    1
    11    15    16   ar
    12    16    17   ar
    13    17    18   ar
    14    18    19   ar
    15    19    21    1
    16    21    22    1
    17    21    23    1
    18    21    25    1
    19    25    26    1
    20    25    27    1
    21    25    28    1
    22    19    20   ar
    23    10    11   ar
    24    11    12   ar
    25    12    13    1
    26    13    14    1
    27     6     2   ar
    28    12     7   ar
    29    14     5    1
    30    20    15   ar
    31    23    24    1
@<TRIPOS>MOLECULE
*****
 28 31 0 0 0
SMALL
GASTEIGER

@<TRIPOS>ATOM
      1 C         140.3034  143.9250  169.5367 C.3     1  UNL1        0.0742
      2 C         140.6809  142.6535  170.2373 C.ar    1  UNL1        0.1472
      3 N         140.4727  142.3530  171.6921 N.ar    1  UNL1       -0.1333
      4 N         140.9960  140.9730  171.9599 N.ar    1  UNL1       -0.1333
      5 C         141.5277  140.4206  170.6707 C.ar    1  UNL1        0.1471
      6 N         141.3329  141.4592  169.6061 N.ar    1  UNL1       -0.2810
      7 C         141.7745  141.1832  168.1993 C.ar    1  UNL1        0.0622
      8 C         141.5798  142.2218  167.1347 C.ar    1  UNL1        0.0173
      9 C         142.0213  141.9458  165.7280 C.ar    1  UNL1        0.0015
     10 C         142.6577  140.6312  165.3859 C.ar    1  UNL1        0.0013
     11 C         142.8524  139.5926  166.4505 C.ar    1  UNL1       -0.0028
     12 C         142.4108  139.8686  167.8572 C.ar    1  UNL1       -0.0056
     13 C         142.6056  138.8300  168.9219 C.3     1  UNL1        0.0358
     14 C         142.1640  139.1060  170.3286 C.3     1  UNL1        0.0709
     15 C         143.0992  140.3552  163.9792 C.ar    1  UNL1        0.0189
     16 C         143.6923  139.0233  163.6269 C.ar    1  UNL1        0.0988
     17 N         144.1339  138.7473  162.2201 N.ar    1  UNL1       -0.2426
     18 C         143.9824  139.8034  161.1657 C.ar    1  UNL1        0.0971
     19 C         143.3892  141.1354  161.5180 C.ar    1  UNL1        0.0289
     20 C         142.9477  141.4113  162.9247 C.ar    1  UNL1        0.0013
     21 C         143.2377  142.1914  160.4636 C.3     1  UNL1        0.1959
     22 C         143.0861  143.2474  159.4091 C.3     1  UNL1        0.0428
     23 O         142.4550  141.2327  159.6160 O.3     1  UNL1       -0.3751
     24 H         142.0042  140.5906  160.1864 H       1  UNL1        0.2110
     25 C         144.0203  143.1500  161.3112 C.3     1  UNL1        0.4231
     26 F         144.8030  144.1087  162.1588 F       1  UNL1       -0.1673
     27 F         145.3822  142.5277  161.3999 F       1  UNL1       -0.1673
     28 F         142.8119  144.0306  161.4311 F       1  UNL1       -0.1673
@<TRIPOS>BOND
     1     1     2    1
     2     2     3   ar
     3     3     4   ar
     4     4     5   ar
     5     5     6   ar
     6     6     7    1
     7     7     8   ar
     8     8     9   ar
     9     9    10   ar
    10    10    15    1
    11    15    16   ar
    12    16    17   ar
    13    17    18   ar
    14    18    19   ar
    15    19    21    1
    16    21    22    1
    17    21    23    1
    18    21    25    1
    19    25    26    1
    20    25    27    1
    21    25    28    1
    22    19    20   ar
    23    10    11   ar
    24    11    12   ar
    25    12    13    1
    26    13    14    1
    27     6     2   ar
    28    12     7   ar
    29    14     5    1
    30    20    15   ar
    31    23    24    1
@<TRIPOS>MOLECULE
*****
 28 31 0 0 0
SMALL
GASTEIGER

@<TRIPOS>ATOM
      1 C         138.6297  140.3779  170.3309 C.3     1  UNL1        0.0742
      2 C         139.9098  141.1424  170.4952 C.ar    1  UNL1        0.1472
      3 N         140.3562  141.8582  171.7355 N.ar    1  UNL1       -0.1333
      4 N         141.6905  142.4835  171.4550 N.ar    1  UNL1       -0.1333
      5 C         142.0686  142.1542  170.0413 C.ar    1  UNL1        0.1471
      6 N         140.9681  141.3254  169.4482 N.ar    1  UNL1       -0.2810
      7 C         141.0719  140.8443  168.0311 C.ar    1  UNL1        0.0622
      8 C         139.9713  140.0155  167.4380 C.ar    1  UNL1        0.0173
      9 C         140.0751  139.5345  166.0210 C.ar    1  UNL1        0.0015
     10 C         141.2794  139.8823  165.1972 C.ar    1  UNL1        0.0013
     11 C         142.3799  140.7111  165.7903 C.ar    1  UNL1       -0.0028
     12 C         142.2762  141.1921  167.2073 C.ar    1  UNL1       -0.0056
     13 C         143.3767  142.0210  167.8005 C.3     1  UNL1        0.0358
     14 C         143.2729  142.5020  169.2175 C.3     1  UNL1        0.0709
     15 C         141.3832  139.4012  163.7802 C.ar    1  UNL1        0.0189
     16 C         142.4972  138.4797  163.3807 C.ar    1  UNL1        0.0988
     17 N         142.6009  137.9987  161.9636 N.ar    1  UNL1       -0.2426
     18 C         141.5906  138.4392  160.9462 C.ar    1  UNL1        0.0971
     19 C         140.4765  139.3607  161.3458 C.ar    1  UNL1        0.0289
     20 C         140.3728  139.8417  162.7628 C.ar    1  UNL1        0.0013
     21 C         139.4661  139.8012  160.3284 C.3     1  UNL1        0.1959
     22 C         138.4558  140.2417  159.3110 C.3     1  UNL1        0.0428
     23 O         140.5502  140.4822  159.5467 O.3     1  UNL1       -0.3751
     24 H         141.3943  140.0306  159.7034 H       1  UNL1        0.2110
     25 C         138.3821  139.1202  161.1101 C.3     1  UNL1        0.4231
     26 F         137.2980  138.4392  161.8918 F       1  UNL1       -0.1673
     27 F         138.7607  137.6694  161.0679 F       1  UNL1       -0.1673
     28 F         137.7215  140.4456  161.3486 F       1  UNL1       -0.1673
@<TRIPOS>BOND
     1     1     2    1
     2     2     3   ar
     3     3     4   ar
     4     4     5   ar
     5     5     6   ar
     6     6     7    1
     7     7     8   ar
     8     8     9   ar
     9     9    10   ar
    10    10    15    1
    11    15    16   ar
    12    16    17   ar
    13    17    18   ar
    14    18    19   ar
    15    19    21    1
    16    21    22    1
    17    21    23    1
    18    21    25    1
    19    25    26    1
    20    25    27    1
    21    25    28    1
    22    19    20   ar
    23    10    11   ar
    24    11    12   ar
    25    12    13    1
    26    13    14    1
    27     6     2   ar
    28    12     7   ar
    29    14     5    1
    30    20    15   ar
    31    23    24    1
@<TRIPOS>MOLECULE
*****
 28 31 0 0 0
SMALL
GASTEIGER

@<TRIPOS>ATOM
      1 C         143.4903  142.1983  160.1227 C.3     1  UNL1        0.0742
      2 C         142.6039  143.4079  160.0913 C.ar    1  UNL1        0.1472
      3 N         142.5657  144.4453  159.0085 N.ar    1  UNL1       -0.1333
      4 N         141.5382  145.4710  159.3852 N.ar    1  UNL1       -0.1333
      5 C         140.9413  145.0677  160.7009 C.ar    1  UNL1        0.1471
      6 N         141.5999  143.7926  161.1372 N.ar    1  UNL1       -0.2810
      7 C         141.2003  143.1465  162.4307 C.ar    1  UNL1        0.0622
      8 C         141.8590  141.8715  162.8670 C.ar    1  UNL1        0.0173
      9 C         141.4594  141.2255  164.1605 C.ar    1  UNL1        0.0015
     10 C         140.4012  141.8545  165.0175 C.ar    1  UNL1        0.0013
     11 C         139.7426  143.1295  164.5812 C.ar    1  UNL1       -0.0028
     12 C         140.1421  143.7755  163.2878 C.ar    1  UNL1       -0.0056
     13 C         139.4835  145.0507  162.8514 C.3     1  UNL1        0.0358
     14 C         139.8831  145.6967  161.5580 C.3     1  UNL1        0.0709
     15 C         140.0017  141.2084  166.3110 C.ar    1  UNL1        0.0189
     16 C         139.0940  140.0143  166.3039 C.ar    1  UNL1        0.0988
     17 N         138.6944  139.3682  167.5974 N.ar    1  UNL1       -0.2426
     18 C         139.2026  139.9163  168.8979 C.ar    1  UNL1        0.0971
     19 C         140.1103  141.1104  168.9049 C.ar    1  UNL1        0.0289
     20 C         140.5099  141.7565  167.6115 C.ar    1  UNL1        0.0013
     21 C         140.6185  141.6585  170.2054 C.3     1  UNL1        0.1959
     22 C         141.1267  142.2066  171.5060 C.3     1  UNL1        0.0428
     23 O         139.2088  141.9202  170.6461 O.3     1  UNL1       -0.3751
     24 H         138.6125  141.2890  170.2138 H       1  UNL1        0.2110
     25 C         142.0283  141.3969  169.7648 C.3     1  UNL1        0.4231
     26 F         143.4380  141.1352  169.3242 F       1  UNL1       -0.1673
     27 F         142.1189  139.9007  169.7074 F       1  UNL1       -0.1673
     28 F         142.2866  142.8736  169.7142 F       1  UNL1       -0.1673
@<TRIPOS>BOND
     1     1     2    1
     2     2     3   ar
     3     3     4   ar
     4     4     5   ar
     5     5     6   ar
     6     6     7    1
     7     7     8   ar
     8     8     9   ar
     9     9    10   ar
    10    10    15    1
    11    15    16   ar
    12    16    17   ar
    13    17    18   ar
    14    18    19   ar
    15    19    21    1
    16    21    22    1
    17    21    23    1
    18    21    25    1
    19    25    26    1
    20    25    27    1
    21    25    28    1
    22    19    20   ar
    23    10    11   ar
    24    11    12   ar
    25    12    13    1
    26    13    14    1
    27     6     2   ar
    28    12     7   ar
    29    14     5    1
    30    20    15   ar
    31    23    24    1
@<TRIPOS>MOLECULE
*****
 28 31 0 0 0
SMALL
GASTEIGER

@<TRIPOS>ATOM
      1 C         138.5437  140.2633  170.3341 C.3     1  UNL1        0.0742
      2 C         139.8499  141.0006  170.3484 C.ar    1  UNL1        0.1472
      3 N         140.4626  141.6859  171.5337 N.ar    1  UNL1       -0.1333
      4 N         141.7640  142.2910  171.0977 N.ar    1  UNL1       -0.1333
      5 C         141.9557  141.9796  169.6430 C.ar    1  UNL1        0.1471
      6 N         140.7727  141.1822  169.1799 N.ar    1  UNL1       -0.2810
      7 C         140.6885  140.7243  167.7539 C.ar    1  UNL1        0.0622
      8 C         139.5055  139.9269  167.2908 C.ar    1  UNL1        0.0173
      9 C         139.4214  139.4691  165.8649 C.ar    1  UNL1        0.0015
     10 C         140.5203  139.8087  164.9020 C.ar    1  UNL1        0.0013
     11 C         141.7034  140.6062  165.3651 C.ar    1  UNL1       -0.0028
     12 C         141.7874  141.0640  166.7911 C.ar    1  UNL1       -0.0056
     13 C         142.9705  141.8615  167.2542 C.3     1  UNL1        0.0358
     14 C         143.0546  142.3193  168.6801 C.3     1  UNL1        0.0709
     15 C         140.4362  139.3509  163.4761 C.ar    1  UNL1        0.0189
     16 C         139.2414  138.5749  163.0068 C.ar    1  UNL1        0.0988
     17 N         139.1572  138.1170  161.5808 N.ar    1  UNL1       -0.2426
     18 C         140.2679  138.4352  160.6242 C.ar    1  UNL1        0.0971
     19 C         141.4628  139.2112  161.0935 C.ar    1  UNL1        0.0289
     20 C         141.5469  139.6690  162.5194 C.ar    1  UNL1        0.0013
     21 C         142.5735  139.5294  160.1369 C.3     1  UNL1        0.1959
     22 C         143.6842  139.8476  159.1803 C.3     1  UNL1        0.0428
     23 O         141.6699  140.4748  159.4023 O.3     1  UNL1       -0.3751
     24 H         141.0052  140.8280  160.0141 H       1  UNL1        0.2110
     25 C         143.4770  138.5839  160.8715 C.3     1  UNL1        0.4231
     26 F         144.3806  137.6385  161.6062 F       1  UNL1       -0.1673
     27 F         142.8614  137.2366  160.6359 F       1  UNL1       -0.1673
     28 F         144.3369  139.7368  161.2977 F       1  UNL1       -0.1673
@<TRIPOS>BOND
     1     1     2    1
     2     2     3   ar
     3     3     4   ar
     4     4     5   ar
     5     5     6   ar
     6     6     7    1
     7     7     8   ar
     8     8     9   ar
     9     9    10   ar
    10    10    15    1
    11    15    16   ar
    12    16    17   ar
    13    17    18   ar
    14    18    19   ar
    15    19    21    1
    16    21    22    1
    17    21    23    1
    18    21    25    1
    19    25    26    1
    20    25    27    1
    21    25    28    1
    22    19    20   ar
    23    10    11   ar
    24    11    12   ar
    25    12    13    1
    26    13    14    1
    27     6     2   ar
    28    12     7   ar
    29    14     5    1
    30    20    15   ar
    31    23    24    1
@<TRIPOS>MOLECULE
*****
 28 31 0 0 0
SMALL
GASTEIGER

@<TRIPOS>ATOM
      1 C         138.6453  140.3438  170.0543 C.3     1  UNL1        0.0742
      2 C         139.9661  140.9444  170.4350 C.ar    1  UNL1        0.1472
      3 N         140.4512  141.1938  171.8324 N.ar    1  UNL1       -0.1333
      4 N         141.8185  141.8045  171.7462 N.ar    1  UNL1       -0.1333
      5 C         142.1784  141.9326  170.2957 C.ar    1  UNL1        0.1471
      6 N         141.0336  141.4010  169.4854 N.ar    1  UNL1       -0.2810
      7 C         141.1110  141.4013  167.9873 C.ar    1  UNL1        0.0622
      8 C         139.9661  140.8697  167.1770 C.ar    1  UNL1        0.0173
      9 C         140.0436  140.8701  165.6791 C.ar    1  UNL1        0.0015
     10 C         141.2659  141.4021  164.9914 C.ar    1  UNL1        0.0013
     11 C         142.4108  141.9337  165.8017 C.ar    1  UNL1       -0.0028
     12 C         142.3333  141.9333  167.2997 C.ar    1  UNL1       -0.0056
     13 C         143.4782  142.4650  168.1100 C.3     1  UNL1        0.0358
     14 C         143.4007  142.4646  169.6080 C.3     1  UNL1        0.0709
     15 C         141.3433  141.4024  163.4933 C.ar    1  UNL1        0.0189
     16 C         140.9243  142.6181  162.7210 C.ar    1  UNL1        0.0988
     17 N         141.0017  142.6184  161.2229 N.ar    1  UNL1       -0.2426
     18 C         141.4982  141.4031  160.4973 C.ar    1  UNL1        0.0971
     19 C         141.9173  140.1874  161.2698 C.ar    1  UNL1        0.0289
     20 C         141.8398  140.1871  162.7677 C.ar    1  UNL1        0.0013
     21 C         142.4138  138.9721  160.5442 C.3     1  UNL1        0.1959
     22 C         142.9103  137.7568  159.8186 C.3     1  UNL1        0.0428
     23 O         143.3014  139.8384  159.7005 O.3     1  UNL1       -0.3751
     24 H         143.5410  140.6364  160.1972 H       1  UNL1        0.2110
     25 C         141.5262  138.1058  161.3878 C.3     1  UNL1        0.4231
     26 F         140.6386  137.2395  162.2314 F       1  UNL1       -0.1673
     27 F         140.1419  138.4299  160.9096 F       1  UNL1       -0.1673
     28 F         142.7315  137.5557  162.0911 F       1  UNL1       -0.1673
@<TRIPOS>BOND
     1     1     2    1
     2     2     3   ar
     3     3     4   ar
     4     4     5   ar
     5     5     6   ar
     6     6     7    1
     7     7     8   ar
     8     8     9   ar
     9     9    10   ar
    10    10    15    1
    11    15    16   ar
    12    16    17   ar
    13    17    18   ar
    14    18    19   ar
    15    19    21    1
    16    21    22    1
    17    21    23    1
    18    21    25    1
    19    25    26    1
    20    25    27    1
    21    25    28    1
    22    19    20   ar
    23    10    11   ar
    24    11    12   ar
    25    12    13    1
    26    13    14    1
    27     6     2   ar
    28    12     7   ar
    29    14     5    1
    30    20    15   ar
    31    23    24    1
@<TRIPOS>MOLECULE
*****
 28 31 0 0 0
SMALL
GASTEIGER

@<TRIPOS>ATOM
      1 C         142.3364  138.0103  160.3266 C.3     1  UNL1        0.0742
      2 C         140.9852  138.4991  159.8963 C.ar    1  UNL1        0.1472
      3 N         140.4547  138.5031  158.4932 N.ar    1  UNL1       -0.1333
      4 N         139.0688  139.0762  158.5233 N.ar    1  UNL1       -0.1333
      5 C         138.7428  139.4264  159.9450 C.ar    1  UNL1        0.1471
      6 N         139.9272  139.0697  160.7934 N.ar    1  UNL1       -0.2810
      7 C         139.8893  139.3107  162.2735 C.ar    1  UNL1        0.0622
      8 C         141.0737  138.9540  163.1220 C.ar    1  UNL1        0.0173
      9 C         141.0357  139.1949  164.6020 C.ar    1  UNL1        0.0015
     10 C         139.8134  139.7925  165.2336 C.ar    1  UNL1        0.0013
     11 C         138.6291  140.1492  164.3851 C.ar    1  UNL1       -0.0028
     12 C         138.6670  139.9083  162.9051 C.ar    1  UNL1       -0.0056
     13 C         137.4826  140.2650  162.0565 C.3     1  UNL1        0.0358
     14 C         137.5205  140.0240  160.5765 C.3     1  UNL1        0.0709
     15 C         139.7755  140.0334  166.7137 C.ar    1  UNL1        0.0189
     16 C         138.6850  139.4254  167.5448 C.ar    1  UNL1        0.0988
     17 N         138.6471  139.6663  169.0249 N.ar    1  UNL1       -0.2426
     18 C         139.6998  140.5153  169.6738 C.ar    1  UNL1        0.0971
     19 C         140.7904  141.1233  168.8425 C.ar    1  UNL1        0.0289
     20 C         140.8283  140.8824  167.3625 C.ar    1  UNL1        0.0013
     21 C         141.8431  141.9723  169.4914 C.3     1  UNL1        0.1959
     22 C         142.8959  142.8213  170.1402 C.3     1  UNL1        0.0428
     23 O         142.9083  141.0661  168.9488 O.3     1  UNL1       -0.3751
     24 H         142.5955  140.6547  168.1280 H       1  UNL1        0.2110
     25 C         140.7780  142.8785  170.0339 C.3     1  UNL1        0.4231
     26 F         139.7128  143.7846  170.5764 F       1  UNL1       -0.1673
     27 F         140.2908  143.6278  168.8293 F       1  UNL1       -0.1673
     28 F         141.0145  142.3321  171.4107 F       1  UNL1       -0.1673
@<TRIPOS>BOND
     1     1     2    1
     2     2     3   ar
     3     3     4   ar
     4     4     5   ar
     5     5     6   ar
     6     6     7    1
     7     7     8   ar
     8     8     9   ar
     9     9    10   ar
    10    10    15    1
    11    15    16   ar
    12    16    17   ar
    13    17    18   ar
    14    18    19   ar
    15    19    21    1
    16    21    22    1
    17    21    23    1
    18    21    25    1
    19    25    26    1
    20    25    27    1
    21    25    28    1
    22    19    20   ar
    23    10    11   ar
    24    11    12   ar
    25    12    13    1
    26    13    14    1
    27     6     2   ar
    28    12     7   ar
    29    14     5    1
    30    20    15   ar
    31    23    24    1
