@<TRIPOS>MOLECULE
*****
 36 39 0 0 0
SMALL
GASTEIGER

@<TRIPOS>ATOM
      1 C         141.5981  139.8367  162.5883 C.3     1  UNL1        0.1547
      2 C         140.4633  139.7848  163.5678 C.ar    1  UNL1        0.0007
      3 C         139.4649  140.9031  163.6189 C.ar    1  UNL1       -0.0025
      4 C         138.3301  140.8512  164.5985 C.ar    1  UNL1       -0.0003
      5 C         138.1937  139.6810  165.5270 C.ar    1  UNL1       -0.0000
      6 C         139.1922  138.5627  165.4759 C.ar    1  UNL1       -0.0003
      7 C         140.3270  138.6147  164.4963 C.ar    1  UNL1       -0.0025
      8 C         141.6091  138.9164  161.4038 C.2     1  UNL1        0.2457
      9 O         141.6257  137.4305  161.6086 O.2     1  UNL1       -0.2729
     10 N         141.6034  139.4820  160.0145 N.am    1  UNL1       -0.2680
     11 H         141.5925  140.4572  159.8801 H       1  UNL1        0.1563
     12 C         141.6144  138.5617  158.8300 C.ar    1  UNL1        0.1342
     13 C         140.3635  138.3566  158.0280 C.ar    1  UNL1        0.0345
     14 C         140.3746  137.4363  156.8436 C.ar    1  UNL1        0.0045
     15 C         141.6364  136.7212  156.4611 C.ar    1  UNL1        0.0223
     16 C         142.8873  136.9263  157.2631 C.ar    1  UNL1        0.1004
     17 N         142.8763  137.8466  158.4475 N.ar    1  UNL1       -0.2290
     18 C         141.6474  135.8009  155.2766 C.ar    1  UNL1        0.0411
     19 C         141.8619  136.2051  153.8480 C.ar    1  UNL1        0.1217
     20 N         141.7929  134.9689  153.0012 N.ar    1  UNL1       -0.1676
     21 N         141.5357  133.8008  153.9064 N.ar    1  UNL1       -0.2473
     22 C         141.3935  132.3696  153.4801 C.3     1  UNL1        0.1538
     23 C         141.4458  134.3150  155.3126 C.ar    1  UNL1        0.0967
     24 N         142.7219  140.8088  162.7932 N.3     1  UNL1       -0.2875
     25 H         143.3423  140.7154  161.9890 H       1  UNL1        0.1239
     26 C         143.5829  140.7126  164.0177 C.3     1  UNL1        0.0735
     27 C         144.1581  142.9396  165.2258 C.3     1  UNL1        0.0061
     28 C         143.3729  141.6634  165.1587 C.3     1  UNL1        0.0381
     29 C         142.3777  141.3379  166.2328 C.ar    1  UNL1       -0.0211
     30 C         141.2610  142.2927  166.5349 C.ar    1  UNL1       -0.0035
     31 C         140.2658  141.9672  167.6090 C.ar    1  UNL1        0.0100
     32 C         140.3872  140.6868  168.3808 C.ar    1  UNL1        0.0684
     33 C         141.5039  139.7319  168.0787 C.ar    1  UNL1        0.0100
     34 C         142.4991  140.0574  167.0047 C.ar    1  UNL1       -0.0035
     35 C         139.3920  140.3612  169.4549 C.1     1  UNL1        0.1004
     36 N         138.3968  140.0356  170.5290 N.1     1  UNL1       -0.1908
@<TRIPOS>BOND
     1    28    27    1
     2    28    26    1
     3    26    24    1
     4     1    24    1
     5     1     8    1
     6     8     9    2
     7     8    10   am
     8    10    12    1
     9    12    13   ar
    10    13    14   ar
    11    14    15   ar
    12    15    18    1
    13    18    19   ar
    14    19    20   ar
    15    20    21   ar
    16    21    22    1
    17    21    23   ar
    18    15    16   ar
    19    16    17   ar
    20     1     2    1
    21     2     3   ar
    22     3     4   ar
    23     4     5   ar
    24     5     6   ar
    25     6     7   ar
    26    28    29    1
    27    29    30   ar
    28    30    31   ar
    29    31    32   ar
    30    32    35    1
    31    35    36    3
    32    32    33   ar
    33    33    34   ar
    34    17    12   ar
    35     7     2   ar
    36    34    29   ar
    37    23    18   ar
    38    24    25    1
    39    10    11    1
@<TRIPOS>MOLECULE
*****
 36 39 0 0 0
SMALL
GASTEIGER

@<TRIPOS>ATOM
      1 C         141.9137  140.7427  162.1154 C.3     1  UNL1        0.1547
      2 C         142.1894  140.0820  163.4335 C.ar    1  UNL1        0.0007
      3 C         142.9045  140.8359  164.5153 C.ar    1  UNL1       -0.0025
      4 C         143.1801  140.1751  165.8334 C.ar    1  UNL1       -0.0003
      5 C         142.7408  138.7605  166.0697 C.ar    1  UNL1       -0.0000
      6 C         142.0257  138.0066  164.9878 C.ar    1  UNL1       -0.0003
      7 C         141.7501  138.6674  163.6697 C.ar    1  UNL1       -0.0025
      8 C         142.9913  140.8187  161.0746 C.2     1  UNL1        0.2457
      9 O         144.3842  140.3693  161.4029 O.2     1  UNL1       -0.2729
     10 N         142.6759  141.3441  159.7055 N.am    1  UNL1       -0.2680
     11 H         141.7617  141.6391  159.4900 H       1  UNL1        0.1563
     12 C         143.7534  141.4201  158.6647 C.ar    1  UNL1        0.1342
     13 C         144.7361  142.5532  158.6838 C.ar    1  UNL1        0.0345
     14 C         145.8135  142.6291  157.6430 C.ar    1  UNL1        0.0045
     15 C         145.9083  141.5720  156.5831 C.ar    1  UNL1        0.0223
     16 C         144.9257  140.4389  156.5640 C.ar    1  UNL1        0.1004
     17 N         143.8482  140.3630  157.6048 N.ar    1  UNL1       -0.2290
     18 C         146.9859  141.6480  155.5423 C.ar    1  UNL1        0.0411
     19 C         146.7938  141.5005  154.0620 C.ar    1  UNL1        0.1217
     20 N         148.1338  141.6461  153.4038 N.ar    1  UNL1       -0.1676
     21 N         149.1541  141.8836  154.4775 N.ar    1  UNL1       -0.2473
     22 C         150.6255  142.0847  154.2665 C.3     1  UNL1        0.1538
     23 C         148.4446  141.8847  155.7991 C.ar    1  UNL1        0.0967
     24 N         140.5606  141.3275  161.8380 N.3     1  UNL1       -0.2875
     25 H         140.5324  141.5451  160.8419 H       1  UNL1        0.1239
     26 C         140.1139  142.5620  162.5637 C.3     1  UNL1        0.0735
     27 C         137.6534  142.9672  163.2926 C.3     1  UNL1        0.0061
     28 C         139.0352  142.4726  163.6021 C.3     1  UNL1        0.0381
     29 C         139.3383  141.8885  164.9501 C.ar    1  UNL1       -0.0211
     30 C         138.9170  140.4852  165.2714 C.ar    1  UNL1       -0.0035
     31 C         139.2202  139.9012  166.6194 C.ar    1  UNL1        0.0100
     32 C         139.9445  140.7205  167.6460 C.ar    1  UNL1        0.0684
     33 C         140.3658  142.1238  167.3247 C.ar    1  UNL1        0.0100
     34 C         140.0627  142.7078  165.9768 C.ar    1  UNL1       -0.0035
     35 C         140.2476  140.1365  168.9941 C.1     1  UNL1        0.1004
     36 N         140.5508  139.5525  170.3420 N.1     1  UNL1       -0.1908
@<TRIPOS>BOND
     1    28    27    1
     2    28    26    1
     3    26    24    1
     4     1    24    1
     5     1     8    1
     6     8     9    2
     7     8    10   am
     8    10    12    1
     9    12    13   ar
    10    13    14   ar
    11    14    15   ar
    12    15    18    1
    13    18    19   ar
    14    19    20   ar
    15    20    21   ar
    16    21    22    1
    17    21    23   ar
    18    15    16   ar
    19    16    17   ar
    20     1     2    1
    21     2     3   ar
    22     3     4   ar
    23     4     5   ar
    24     5     6   ar
    25     6     7   ar
    26    28    29    1
    27    29    30   ar
    28    30    31   ar
    29    31    32   ar
    30    32    35    1
    31    35    36    3
    32    32    33   ar
    33    33    34   ar
    34    17    12   ar
    35     7     2   ar
    36    34    29   ar
    37    23    18   ar
    38    24    25    1
    39    10    11    1
@<TRIPOS>MOLECULE
*****
 36 39 0 0 0
SMALL
GASTEIGER

@<TRIPOS>ATOM
      1 C         140.9665  139.4751  163.4538 C.3     1  UNL1        0.1547
      2 C         139.9273  139.1489  164.4851 C.ar    1  UNL1        0.0007
      3 C         139.6741  137.7212  164.8692 C.ar    1  UNL1       -0.0025
      4 C         138.6349  137.3950  165.9005 C.ar    1  UNL1       -0.0003
      5 C         137.8490  138.4965  166.5479 C.ar    1  UNL1       -0.0000
      6 C         138.1022  139.9242  166.1638 C.ar    1  UNL1       -0.0003
      7 C         139.1415  140.2504  165.1324 C.ar    1  UNL1       -0.0025
      8 C         140.9626  138.7626  162.1337 C.2     1  UNL1        0.2457
      9 O         140.5184  137.3321  162.0548 O.2     1  UNL1       -0.2729
     10 N         141.4029  139.4807  160.8926 N.am    1  UNL1       -0.2680
     11 H         141.6944  140.4197  160.9444 H       1  UNL1        0.1563
     12 C         141.3990  138.7683  159.5725 C.ar    1  UNL1        0.1342
     13 C         140.1263  138.6508  158.7874 C.ar    1  UNL1        0.0345
     14 C         140.1225  137.9384  157.4674 C.ar    1  UNL1        0.0045
     15 C         141.3913  137.3435  156.9325 C.ar    1  UNL1        0.0223
     16 C         142.6640  137.4610  157.7176 C.ar    1  UNL1        0.1004
     17 N         142.6679  138.1734  159.0376 N.ar    1  UNL1       -0.2290
     18 C         141.3875  136.6311  155.6125 C.ar    1  UNL1        0.0411
     19 C         141.1955  137.2674  154.2677 C.ar    1  UNL1        0.1217
     20 N         141.2643  136.1870  153.2295 N.ar    1  UNL1       -0.1676
     21 N         141.4987  134.8828  153.9327 N.ar    1  UNL1       -0.2473
     22 C         141.6333  133.5399  153.2780 C.3     1  UNL1        0.1538
     23 C         141.5748  135.1573  155.4054 C.ar    1  UNL1        0.0967
     24 N         142.0096  140.5137  163.7424 N.3     1  UNL1       -0.2875
     25 H         142.3479  140.8497  162.8407 H       1  UNL1        0.1239
     26 C         143.2198  140.1560  164.5531 C.3     1  UNL1        0.0735
     27 C         143.6581  138.2243  166.2343 C.3     1  UNL1        0.0061
     28 C         143.0576  139.5627  165.9212 C.3     1  UNL1        0.0381
     29 C         142.2950  140.3078  166.9762 C.ar    1  UNL1       -0.0211
     30 C         141.4253  139.5595  167.9425 C.ar    1  UNL1       -0.0035
     31 C         140.6626  140.3046  168.9975 C.ar    1  UNL1        0.0100
     32 C         140.7697  141.7982  169.0863 C.ar    1  UNL1        0.0684
     33 C         141.6393  142.5466  168.1201 C.ar    1  UNL1        0.0100
     34 C         142.4020  141.8014  167.0651 C.ar    1  UNL1       -0.0035
     35 C         140.0070  142.5434  170.1414 C.1     1  UNL1        0.1004
     36 N         139.2443  143.2885  171.1964 N.1     1  UNL1       -0.1908
@<TRIPOS>BOND
     1    28    27    1
     2    28    26    1
     3    26    24    1
     4     1    24    1
     5     1     8    1
     6     8     9    2
     7     8    10   am
     8    10    12    1
     9    12    13   ar
    10    13    14   ar
    11    14    15   ar
    12    15    18    1
    13    18    19   ar
    14    19    20   ar
    15    20    21   ar
    16    21    22    1
    17    21    23   ar
    18    15    16   ar
    19    16    17   ar
    20     1     2    1
    21     2     3   ar
    22     3     4   ar
    23     4     5   ar
    24     5     6   ar
    25     6     7   ar
    26    28    29    1
    27    29    30   ar
    28    30    31   ar
    29    31    32   ar
    30    32    35    1
    31    35    36    3
    32    32    33   ar
    33    33    34   ar
    34    17    12   ar
    35     7     2   ar
    36    34    29   ar
    37    23    18   ar
    38    24    25    1
    39    10    11    1
@<TRIPOS>MOLECULE
*****
 36 39 0 0 0
SMALL
GASTEIGER

@<TRIPOS>ATOM
      1 C         141.9560  141.0686  161.6710 C.3     1  UNL1        0.1547
      2 C         141.6464  139.8612  162.5053 C.ar    1  UNL1        0.0007
      3 C         140.6337  138.8614  162.0310 C.ar    1  UNL1       -0.0025
      4 C         140.3241  137.6539  162.8654 C.ar    1  UNL1       -0.0003
      5 C         141.0272  137.4462  164.1741 C.ar    1  UNL1       -0.0000
      6 C         142.0398  138.4460  164.6484 C.ar    1  UNL1       -0.0003
      7 C         142.3494  139.6535  163.8140 C.ar    1  UNL1       -0.0025
      8 C         143.0603  141.0166  160.6571 C.2     1  UNL1        0.2457
      9 O         144.1954  140.0520  160.8333 O.2     1  UNL1       -0.2729
     10 N         143.0294  141.9291  159.4670 N.am    1  UNL1       -0.2680
     11 H         142.2843  142.5621  159.3513 H       1  UNL1        0.1563
     12 C         144.1336  141.8770  158.4531 C.ar    1  UNL1        0.1342
     13 C         145.3124  142.7959  158.5801 C.ar    1  UNL1        0.0345
     14 C         146.4165  142.7439  157.5662 C.ar    1  UNL1        0.0045
     15 C         146.3420  141.7729  156.4253 C.ar    1  UNL1        0.0223
     16 C         145.1633  140.8540  156.2983 C.ar    1  UNL1        0.1004
     17 N         144.0591  140.9061  157.3121 N.ar    1  UNL1       -0.2290
     18 C         147.4463  141.7209  155.4114 C.ar    1  UNL1        0.0411
     19 C         147.2746  141.6923  153.9215 C.ar    1  UNL1        0.1217
     20 N         148.6382  141.6420  153.2986 N.ar    1  UNL1       -0.1676
     21 N         149.6527  141.6396  154.4036 N.ar    1  UNL1       -0.2473
     22 C         151.1423  141.5961  154.2328 C.3     1  UNL1        0.1538
     23 C         148.9160  141.6884  155.7093 C.ar    1  UNL1        0.0967
     24 N         141.1614  142.3281  161.8505 N.3     1  UNL1       -0.2875
     25 H         141.3444  142.9107  161.0335 H       1  UNL1        0.1239
     26 C         141.3859  143.1911  163.0566 C.3     1  UNL1        0.0735
     27 C         139.8249  144.7213  164.4607 C.3     1  UNL1        0.0061
     28 C         140.2987  143.3506  164.0776 C.3     1  UNL1        0.0381
     29 C         139.6852  142.1396  164.7155 C.ar    1  UNL1       -0.0211
     30 C         140.1458  141.6912  166.0708 C.ar    1  UNL1       -0.0035
     31 C         139.5323  140.4800  166.7086 C.ar    1  UNL1        0.0100
     32 C         138.4582  139.7174  165.9912 C.ar    1  UNL1        0.0684
     33 C         137.9976  140.1658  164.6360 C.ar    1  UNL1        0.0100
     34 C         138.6111  141.3769  163.9981 C.ar    1  UNL1       -0.0035
     35 C         137.8447  138.5062  166.6291 C.1     1  UNL1        0.1004
     36 N         137.2312  137.2951  167.2669 N.1     1  UNL1       -0.1908
@<TRIPOS>BOND
     1    28    27    1
     2    28    26    1
     3    26    24    1
     4     1    24    1
     5     1     8    1
     6     8     9    2
     7     8    10   am
     8    10    12    1
     9    12    13   ar
    10    13    14   ar
    11    14    15   ar
    12    15    18    1
    13    18    19   ar
    14    19    20   ar
    15    20    21   ar
    16    21    22    1
    17    21    23   ar
    18    15    16   ar
    19    16    17   ar
    20     1     2    1
    21     2     3   ar
    22     3     4   ar
    23     4     5   ar
    24     5     6   ar
    25     6     7   ar
    26    28    29    1
    27    29    30   ar
    28    30    31   ar
    29    31    32   ar
    30    32    35    1
    31    35    36    3
    32    32    33   ar
    33    33    34   ar
    34    17    12   ar
    35     7     2   ar
    36    34    29   ar
    37    23    18   ar
    38    24    25    1
    39    10    11    1
@<TRIPOS>MOLECULE
*****
 36 39 0 0 0
SMALL
GASTEIGER

@<TRIPOS>ATOM
      1 C         141.1320  140.0727  162.2913 C.3     1  UNL1        0.1547
      2 C         142.4140  140.4331  162.9815 C.ar    1  UNL1        0.0007
      3 C         143.4918  139.4031  163.1473 C.ar    1  UNL1       -0.0025
      4 C         144.7739  139.7636  163.8375 C.ar    1  UNL1       -0.0003
      5 C         144.9782  141.1540  164.3619 C.ar    1  UNL1       -0.0000
      6 C         143.9004  142.1840  164.1962 C.ar    1  UNL1       -0.0003
      7 C         142.6183  141.8235  163.5059 C.ar    1  UNL1       -0.0025
      8 C         141.1385  139.0776  161.1689 C.2     1  UNL1        0.2457
      9 O         140.7140  137.6610  161.4200 O.2     1  UNL1       -0.2729
     10 N         141.5695  139.4991  159.7954 N.am    1  UNL1       -0.2680
     11 H         141.8481  140.4289  159.6306 H       1  UNL1        0.1563
     12 C         141.5760  138.5040  158.6729 C.ar    1  UNL1        0.1342
     13 C         140.3386  138.2912  157.8522 C.ar    1  UNL1        0.0345
     14 C         140.3452  137.2961  156.7298 C.ar    1  UNL1        0.0045
     15 C         141.5891  136.5140  156.4281 C.ar    1  UNL1        0.0223
     16 C         142.8264  136.7268  157.2489 C.ar    1  UNL1        0.1004
     17 N         142.8198  137.7219  158.3713 N.ar    1  UNL1       -0.2290
     18 C         141.5956  135.5189  155.3057 C.ar    1  UNL1        0.0411
     19 C         140.9831  135.7145  153.9504 C.ar    1  UNL1        0.1217
     20 N         141.2246  134.4701  153.1485 N.ar    1  UNL1       -0.1676
     21 N         141.9865  133.5053  154.0082 N.ar    1  UNL1       -0.2473
     22 C         142.4395  132.1333  153.6054 C.3     1  UNL1        0.1538
     23 C         142.2157  134.1536  155.3414 C.ar    1  UNL1        0.0967
     24 N         139.8434  140.7073  162.7235 N.3     1  UNL1       -0.2875
     25 H         140.0822  141.6127  163.1280 H       1  UNL1        0.1239
     26 C         138.9593  140.0099  163.7145 C.3     1  UNL1        0.0735
     27 C         139.2659  137.8015  165.0482 C.3     1  UNL1        0.0061
     28 C         139.5660  139.2594  164.8628 C.3     1  UNL1        0.0381
     29 C         140.4728  139.9667  165.8258 C.ar    1  UNL1       -0.0211
     30 C         140.1483  141.3603  166.2759 C.ar    1  UNL1       -0.0035
     31 C         141.0552  142.0677  167.2389 C.ar    1  UNL1        0.0100
     32 C         142.2865  141.3814  167.7518 C.ar    1  UNL1        0.0684
     33 C         142.6109  139.9878  167.3017 C.ar    1  UNL1        0.0100
     34 C         141.7041  139.2805  166.3387 C.ar    1  UNL1       -0.0035
     35 C         143.1933  142.0888  168.7148 C.1     1  UNL1        0.1004
     36 N         144.1002  142.7960  169.6778 N.1     1  UNL1       -0.1908
@<TRIPOS>BOND
     1    28    27    1
     2    28    26    1
     3    26    24    1
     4     1    24    1
     5     1     8    1
     6     8     9    2
     7     8    10   am
     8    10    12    1
     9    12    13   ar
    10    13    14   ar
    11    14    15   ar
    12    15    18    1
    13    18    19   ar
    14    19    20   ar
    15    20    21   ar
    16    21    22    1
    17    21    23   ar
    18    15    16   ar
    19    16    17   ar
    20     1     2    1
    21     2     3   ar
    22     3     4   ar
    23     4     5   ar
    24     5     6   ar
    25     6     7   ar
    26    28    29    1
    27    29    30   ar
    28    30    31   ar
    29    31    32   ar
    30    32    35    1
    31    35    36    3
    32    32    33   ar
    33    33    34   ar
    34    17    12   ar
    35     7     2   ar
    36    34    29   ar
    37    23    18   ar
    38    24    25    1
    39    10    11    1
@<TRIPOS>MOLECULE
*****
 36 39 0 0 0
SMALL
GASTEIGER

@<TRIPOS>ATOM
      1 C         138.9884  141.0564  162.5711 C.3     1  UNL1        0.1547
      2 C         138.9387  142.1937  163.5478 C.ar    1  UNL1        0.0007
      3 C         137.7877  143.1552  163.5216 C.ar    1  UNL1       -0.0025
      4 C         137.7380  144.2924  164.4984 C.ar    1  UNL1       -0.0003
      5 C         138.8395  144.4683  165.5013 C.ar    1  UNL1       -0.0000
      6 C         139.9906  143.5069  165.5275 C.ar    1  UNL1       -0.0003
      7 C         140.0402  142.3696  164.5507 C.ar    1  UNL1       -0.0025
      8 C         139.9230  141.1144  161.3992 C.2     1  UNL1        0.2457
      9 O         139.4012  141.4787  160.0410 O.2     1  UNL1       -0.2729
     10 N         141.3795  140.8081  161.5857 N.am    1  UNL1       -0.2680
     11 H         141.7220  140.5690  162.4772 H       1  UNL1        0.1563
     12 C         142.3142  140.8661  160.4139 C.ar    1  UNL1        0.1342
     13 C         143.2085  142.0555  160.2260 C.ar    1  UNL1        0.0345
     14 C         144.1431  142.1135  159.0542 C.ar    1  UNL1        0.0045
     15 C         144.1834  140.9819  158.0703 C.ar    1  UNL1        0.0223
     16 C         143.2891  139.7924  158.2582 C.ar    1  UNL1        0.1004
     17 N         142.3545  139.7345  159.4300 N.ar    1  UNL1       -0.2290
     18 C         145.1180  141.0399  156.8985 C.ar    1  UNL1        0.0411
     19 C         145.0729  140.1525  155.6900 C.ar    1  UNL1        0.1217
     20 N         146.1889  140.5595  154.7740 N.ar    1  UNL1       -0.1676
     21 N         146.9237  141.6986  155.4165 N.ar    1  UNL1       -0.2473
     22 C         148.1117  142.4150  154.8461 C.3     1  UNL1        0.1538
     23 C         146.2618  141.9954  156.7294 C.ar    1  UNL1        0.0967
     24 N         138.1034  139.8611  162.7661 N.3     1  UNL1       -0.2875
     25 H         137.6288  139.9888  163.6599 H       1  UNL1        0.1239
     26 C         138.6966  138.4836  162.7837 C.3     1  UNL1        0.0735
     27 C         140.8445  137.1843  163.4535 C.3     1  UNL1        0.0061
     28 C         139.7322  138.1260  163.8083 C.3     1  UNL1        0.0381
     29 C         139.6555  138.7102  165.1877 C.ar    1  UNL1       -0.0211
     30 C         138.3570  138.6929  165.9384 C.ar    1  UNL1       -0.0035
     31 C         138.2804  139.2771  167.3179 C.ar    1  UNL1        0.0100
     32 C         139.5022  139.8786  167.9466 C.ar    1  UNL1        0.0684
     33 C         140.8007  139.8960  167.1958 C.ar    1  UNL1        0.0100
     34 C         140.8774  139.3118  165.8164 C.ar    1  UNL1       -0.0035
     35 C         139.4255  140.4629  169.3260 C.1     1  UNL1        0.1004
     36 N         139.3489  141.0471  170.7054 N.1     1  UNL1       -0.1908
@<TRIPOS>BOND
     1    28    27    1
     2    28    26    1
     3    26    24    1
     4     1    24    1
     5     1     8    1
     6     8     9    2
     7     8    10   am
     8    10    12    1
     9    12    13   ar
    10    13    14   ar
    11    14    15   ar
    12    15    18    1
    13    18    19   ar
    14    19    20   ar
    15    20    21   ar
    16    21    22    1
    17    21    23   ar
    18    15    16   ar
    19    16    17   ar
    20     1     2    1
    21     2     3   ar
    22     3     4   ar
    23     4     5   ar
    24     5     6   ar
    25     6     7   ar
    26    28    29    1
    27    29    30   ar
    28    30    31   ar
    29    31    32   ar
    30    32    35    1
    31    35    36    3
    32    32    33   ar
    33    33    34   ar
    34    17    12   ar
    35     7     2   ar
    36    34    29   ar
    37    23    18   ar
    38    24    25    1
    39    10    11    1
@<TRIPOS>MOLECULE
*****
 36 39 0 0 0
SMALL
GASTEIGER

@<TRIPOS>ATOM
      1 C         141.9411  139.9218  163.2057 C.3     1  UNL1        0.1547
      2 C         142.7612  141.0414  163.7748 C.ar    1  UNL1        0.0007
      3 C         144.2567  140.9311  163.8136 C.ar    1  UNL1       -0.0025
      4 C         145.0768  142.0507  164.3827 C.ar    1  UNL1       -0.0003
      5 C         144.4014  143.2807  164.9130 C.ar    1  UNL1       -0.0000
      6 C         142.9060  143.3910  164.8742 C.ar    1  UNL1       -0.0003
      7 C         142.0859  142.2713  164.3050 C.ar    1  UNL1       -0.0025
      8 C         140.8944  140.2099  162.1706 C.2     1  UNL1        0.2457
      9 O         139.4425  140.0314  162.5023 O.2     1  UNL1       -0.2729
     10 N         141.2996  140.6764  160.8038 N.am    1  UNL1       -0.2680
     11 H         142.2526  140.7935  160.5861 H       1  UNL1        0.1563
     12 C         140.2529  140.9644  159.7686 C.ar    1  UNL1        0.1342
     13 C         139.6645  142.3399  159.6595 C.ar    1  UNL1        0.0345
     14 C         138.6179  142.6279  158.6244 C.ar    1  UNL1        0.0045
     15 C         138.1595  141.5404  157.6984 C.ar    1  UNL1        0.0223
     16 C         138.7478  140.1649  157.8076 C.ar    1  UNL1        0.1004
     17 N         139.7945  139.8770  158.8427 N.ar    1  UNL1       -0.2290
     18 C         137.1128  141.8284  156.6633 C.ar    1  UNL1        0.0411
     19 C         136.9894  143.0902  155.8615 C.ar    1  UNL1        0.1217
     20 N         135.8061  142.9469  154.9509 N.ar    1  UNL1       -0.1676
     21 N         135.1981  141.5966  155.1899 N.ar    1  UNL1       -0.2473
     22 C         133.9939  141.0359  154.4930 C.3     1  UNL1        0.1538
     23 C         136.0057  140.9054  156.2482 C.ar    1  UNL1        0.0967
     24 N         142.1677  138.5142  163.6717 N.3     1  UNL1       -0.2875
     25 H         141.6388  137.9078  163.0449 H       1  UNL1        0.1239
     26 C         141.7983  138.1186  165.0706 C.3     1  UNL1        0.0735
     27 C         143.8831  137.9941  166.6160 C.3     1  UNL1        0.0061
     28 C         142.5876  138.6456  166.2322 C.3     1  UNL1        0.0381
     29 C         142.0815  139.8241  167.0100 C.ar    1  UNL1       -0.0211
     30 C         143.0497  140.8149  167.5852 C.ar    1  UNL1       -0.0035
     31 C         142.5435  141.9934  168.3630 C.ar    1  UNL1        0.0100
     32 C         141.0692  142.1811  168.5656 C.ar    1  UNL1        0.0684
     33 C         140.1010  141.1903  167.9903 C.ar    1  UNL1        0.0100
     34 C         140.6071  140.0118  167.2126 C.ar    1  UNL1       -0.0035
     35 C         140.5629  143.3596  169.3434 C.1     1  UNL1        0.1004
     36 N         140.0568  144.5381  170.1211 N.1     1  UNL1       -0.1908
@<TRIPOS>BOND
     1    28    27    1
     2    28    26    1
     3    26    24    1
     4     1    24    1
     5     1     8    1
     6     8     9    2
     7     8    10   am
     8    10    12    1
     9    12    13   ar
    10    13    14   ar
    11    14    15   ar
    12    15    18    1
    13    18    19   ar
    14    19    20   ar
    15    20    21   ar
    16    21    22    1
    17    21    23   ar
    18    15    16   ar
    19    16    17   ar
    20     1     2    1
    21     2     3   ar
    22     3     4   ar
    23     4     5   ar
    24     5     6   ar
    25     6     7   ar
    26    28    29    1
    27    29    30   ar
    28    30    31   ar
    29    31    32   ar
    30    32    35    1
    31    35    36    3
    32    32    33   ar
    33    33    34   ar
    34    17    12   ar
    35     7     2   ar
    36    34    29   ar
    37    23    18   ar
    38    24    25    1
    39    10    11    1
@<TRIPOS>MOLECULE
*****
 36 39 0 0 0
SMALL
GASTEIGER

@<TRIPOS>ATOM
      1 C         141.2112  139.0842  163.3434 C.3     1  UNL1        0.1547
      2 C         140.1637  138.9325  164.4063 C.ar    1  UNL1        0.0007
      3 C         139.6944  140.1329  165.1736 C.ar    1  UNL1       -0.0025
      4 C         138.6469  139.9811  166.2364 C.ar    1  UNL1       -0.0003
      5 C         138.0688  138.6289  166.5321 C.ar    1  UNL1       -0.0000
      6 C         138.5381  137.4285  165.7648 C.ar    1  UNL1       -0.0003
      7 C         139.5857  137.5803  164.7019 C.ar    1  UNL1       -0.0025
      8 C         140.9135  139.8760  162.1046 C.2     1  UNL1        0.2457
      9 O         140.4582  139.1760  160.8585 O.2     1  UNL1       -0.2729
     10 N         141.0711  141.3676  162.1119 N.am    1  UNL1       -0.2680
     11 H         141.3700  141.8270  162.9298 H       1  UNL1        0.1563
     12 C         140.7734  142.1594  160.8731 C.ar    1  UNL1        0.1342
     13 C         139.3567  142.3178  160.4067 C.ar    1  UNL1        0.0345
     14 C         139.0590  143.1096  159.1679 C.ar    1  UNL1        0.0045
     15 C         140.1782  143.7429  158.3957 C.ar    1  UNL1        0.0223
     16 C         141.5949  143.5845  158.8621 C.ar    1  UNL1        0.1004
     17 N         141.8926  142.7928  160.1009 N.ar    1  UNL1       -0.2290
     18 C         139.8805  144.5347  157.1569 C.ar    1  UNL1        0.0411
     19 C         139.3467  143.9860  155.8669 C.ar    1  UNL1        0.1217
     20 N         139.2006  145.1263  154.9033 N.ar    1  UNL1       -0.1676
     21 N         139.6442  146.3797  155.5979 N.ar    1  UNL1       -0.2473
     22 C         139.6640  147.7570  155.0039 C.3     1  UNL1        0.1538
     23 C         140.0643  146.0140  156.9906 C.ar    1  UNL1        0.0967
     24 N         142.5564  138.4442  163.5192 N.3     1  UNL1       -0.2875
     25 H         142.4062  137.4354  163.5082 H       1  UNL1        0.1239
     26 C         143.3772  138.7465  164.7377 C.3     1  UNL1        0.0735
     27 C         144.1734  141.1978  164.4105 C.3     1  UNL1        0.0061
     28 C         143.4832  140.1560  165.2400 C.3     1  UNL1        0.0381
     29 C         142.8989  140.5236  166.5717 C.ar    1  UNL1       -0.0211
     30 C         142.7353  141.9668  166.9463 C.ar    1  UNL1       -0.0035
     31 C         142.1510  142.3343  168.2781 C.ar    1  UNL1        0.0100
     32 C         141.7304  141.2587  169.2352 C.ar    1  UNL1        0.0684
     33 C         141.8940  139.8155  168.8606 C.ar    1  UNL1        0.0100
     34 C         142.4783  139.4479  167.5289 C.ar    1  UNL1       -0.0035
     35 C         141.1461  141.6263  170.5670 C.1     1  UNL1        0.1004
     36 N         140.5618  141.9939  171.8986 N.1     1  UNL1       -0.1908
@<TRIPOS>BOND
     1    28    27    1
     2    28    26    1
     3    26    24    1
     4     1    24    1
     5     1     8    1
     6     8     9    2
     7     8    10   am
     8    10    12    1
     9    12    13   ar
    10    13    14   ar
    11    14    15   ar
    12    15    18    1
    13    18    19   ar
    14    19    20   ar
    15    20    21   ar
    16    21    22    1
    17    21    23   ar
    18    15    16   ar
    19    16    17   ar
    20     1     2    1
    21     2     3   ar
    22     3     4   ar
    23     4     5   ar
    24     5     6   ar
    25     6     7   ar
    26    28    29    1
    27    29    30   ar
    28    30    31   ar
    29    31    32   ar
    30    32    35    1
    31    35    36    3
    32    32    33   ar
    33    33    34   ar
    34    17    12   ar
    35     7     2   ar
    36    34    29   ar
    37    23    18   ar
    38    24    25    1
    39    10    11    1
@<TRIPOS>MOLECULE
*****
 36 39 0 0 0
SMALL
GASTEIGER

@<TRIPOS>ATOM
      1 C         142.2045  139.9821  161.8829 C.3     1  UNL1        0.1547
      2 C         142.5232  139.5730  163.2903 C.ar    1  UNL1        0.0007
      3 C         141.4141  139.2459  164.2457 C.ar    1  UNL1       -0.0025
      4 C         141.7328  138.8368  165.6532 C.ar    1  UNL1       -0.0003
      5 C         143.1607  138.7548  166.1053 C.ar    1  UNL1       -0.0000
      6 C         144.2699  139.0818  165.1499 C.ar    1  UNL1       -0.0003
      7 C         143.9511  139.4909  163.7424 C.ar    1  UNL1       -0.0025
      8 C         142.0391  138.9389  160.8178 C.2     1  UNL1        0.2457
      9 O         141.8863  137.4961  161.1985 O.2     1  UNL1       -0.2729
     10 N         142.0264  139.3385  159.3721 N.am    1  UNL1       -0.2680
     11 H         142.1267  140.2855  159.1222 H       1  UNL1        0.1563
     12 C         141.8609  138.2953  158.3070 C.ar    1  UNL1        0.1342
     13 C         140.5606  138.1768  157.5687 C.ar    1  UNL1        0.0345
     14 C         140.3951  137.1336  156.5037 C.ar    1  UNL1        0.0045
     15 C         141.5300  136.2089  156.1769 C.ar    1  UNL1        0.0223
     16 C         142.8304  136.3273  156.9151 C.ar    1  UNL1        0.1004
     17 N         142.9958  137.3705  157.9802 N.ar    1  UNL1       -0.2290
     18 C         141.3645  135.1656  155.1118 C.ar    1  UNL1        0.0411
     19 C         141.1080  135.4242  153.6567 C.ar    1  UNL1        0.1217
     20 N         141.0115  134.0992  152.9604 N.ar    1  UNL1       -0.1676
     21 N         141.2083  133.0216  153.9852 N.ar    1  UNL1       -0.2473
     22 C         141.1901  131.5443  153.7259 C.3     1  UNL1        0.1538
     23 C         141.4265  133.6808  155.3148 C.ar    1  UNL1        0.0967
     24 N         142.0513  141.4344  161.5404 N.3     1  UNL1       -0.2875
     25 H         142.9227  141.8932  161.8063 H       1  UNL1        0.1239
     26 C         140.9377  142.2348  162.1479 C.3     1  UNL1        0.0735
     27 C         141.1296  144.7536  162.7551 C.3     1  UNL1        0.0061
     28 C         141.2456  143.3104  163.1471 C.3     1  UNL1        0.0381
     29 C         141.6695  142.9428  164.5381 C.ar    1  UNL1       -0.0211
     30 C         140.6356  142.6388  165.5816 C.ar    1  UNL1       -0.0035
     31 C         141.0596  142.2712  166.9727 C.ar    1  UNL1        0.0100
     32 C         142.5173  142.2076  167.3204 C.ar    1  UNL1        0.0684
     33 C         143.5511  142.5116  166.2769 C.ar    1  UNL1        0.0100
     34 C         143.1273  142.8792  164.8859 C.ar    1  UNL1       -0.0035
     35 C         142.9412  141.8400  168.7115 C.1     1  UNL1        0.1004
     36 N         143.3652  141.4724  170.1026 N.1     1  UNL1       -0.1908
@<TRIPOS>BOND
     1    28    27    1
     2    28    26    1
     3    26    24    1
     4     1    24    1
     5     1     8    1
     6     8     9    2
     7     8    10   am
     8    10    12    1
     9    12    13   ar
    10    13    14   ar
    11    14    15   ar
    12    15    18    1
    13    18    19   ar
    14    19    20   ar
    15    20    21   ar
    16    21    22    1
    17    21    23   ar
    18    15    16   ar
    19    16    17   ar
    20     1     2    1
    21     2     3   ar
    22     3     4   ar
    23     4     5   ar
    24     5     6   ar
    25     6     7   ar
    26    28    29    1
    27    29    30   ar
    28    30    31   ar
    29    31    32   ar
    30    32    35    1
    31    35    36    3
    32    32    33   ar
    33    33    34   ar
    34    17    12   ar
    35     7     2   ar
    36    34    29   ar
    37    23    18   ar
    38    24    25    1
    39    10    11    1
