@<TRIPOS>MOLECULE
*****
 22 23 0 0 0
SMALL
GASTEIGER

@<TRIPOS>ATOM
      1 C         139.5298  143.6848  161.4445 C.3     1  UNL1        0.0902
      2 N         138.6014  143.6210  162.6210 N.3     1  UNL1       -0.2639
      3 C         138.7206  144.6285  163.7259 C.3     1  UNL1        0.0998
      4 C         138.9202  144.1704  165.1402 C.2     1  UNL1        0.0001
      5 C         140.1410  143.3799  165.5073 C.2     1  UNL1        0.0461
      6 C         140.3406  142.9218  166.9217 C.1     1  UNL1       -0.0641
      7 C         140.5403  142.4637  168.3359 C.1     1  UNL1       -0.0884
      8 C         140.7399  142.0057  169.7502 C.3     1  UNL1        0.0544
      9 C         139.8089  140.8546  169.5089 C.3     1  UNL1        0.0130
     10 C         141.6709  143.1567  169.9916 C.3     1  UNL1        0.0130
     11 C         140.9395  141.5475  171.1646 C.3     1  UNL1        0.0130
     12 C         137.5539  142.5498  162.6925 C.3     1  UNL1        0.0994
     13 C         137.9113  141.1287  162.3722 C.ar    1  UNL1       -0.0061
     14 C         138.0105  140.6841  160.9431 C.ar    1  UNL1       -0.0029
     15 C         138.3680  139.2630  160.6228 C.ar    1  UNL1       -0.0003
     16 C         138.6262  138.2864  161.7316 C.ar    1  UNL1       -0.0000
     17 C         138.5270  138.7309  163.1608 C.ar    1  UNL1       -0.0003
     18 C         138.7852  137.7544  164.2697 C.ar    1  UNL1       -0.0000
     19 C         138.6860  138.1989  165.6988 C.ar    1  UNL1       -0.0000
     20 C         138.3286  139.6201  166.0191 C.ar    1  UNL1       -0.0000
     21 C         138.0703  140.5967  164.9103 C.ar    1  UNL1       -0.0003
     22 C         138.1695  140.1521  163.4811 C.ar    1  UNL1       -0.0027
@<TRIPOS>BOND
     1     1     2    1
     2     2     3    1
     3     3     4    1
     4     4     5    2
     5     5     6    1
     6     6     7    3
     7     7     8    1
     8     8     9    1
     9     8    10    1
    10     8    11    1
    11     2    12    1
    12    12    13    1
    13    13    14   ar
    14    14    15   ar
    15    15    16   ar
    16    16    17   ar
    17    17    18   ar
    18    18    19   ar
    19    19    20   ar
    20    20    21   ar
    21    21    22   ar
    22    22    13   ar
    23    22    17   ar
@<TRIPOS>MOLECULE
*****
 22 23 0 0 0
SMALL
GASTEIGER

@<TRIPOS>ATOM
      1 C         141.4953  139.9197  170.3930 C.3     1  UNL1        0.0902
      2 N         141.5960  140.9970  169.3541 N.3     1  UNL1       -0.2639
      3 C         140.4377  141.9200  169.1160 C.3     1  UNL1        0.0998
      4 C         140.4463  142.8451  167.9353 C.2     1  UNL1        0.0001
      5 C         139.9984  142.3505  166.5919 C.2     1  UNL1        0.0461
      6 C         140.0069  143.2756  165.4111 C.1     1  UNL1       -0.0641
      7 C         140.0154  144.2006  164.2304 C.1     1  UNL1       -0.0884
      8 C         140.0240  145.1257  163.0496 C.3     1  UNL1        0.0544
      9 C         138.5713  144.8367  162.8127 C.3     1  UNL1        0.0130
     10 C         141.4767  145.4146  163.2865 C.3     1  UNL1        0.0130
     11 C         140.0325  146.0507  161.8688 C.3     1  UNL1        0.0130
     12 C         142.8549  141.1513  168.5533 C.3     1  UNL1        0.0994
     13 C         142.9573  140.5332  167.1904 C.ar    1  UNL1       -0.0061
     14 C         142.6170  139.0854  166.9960 C.ar    1  UNL1       -0.0029
     15 C         142.7195  138.4673  165.6331 C.ar    1  UNL1       -0.0003
     16 C         143.1622  139.2970  164.4646 C.ar    1  UNL1       -0.0000
     17 C         143.5025  140.7450  164.6590 C.ar    1  UNL1       -0.0003
     18 C         143.9453  141.5748  163.4905 C.ar    1  UNL1       -0.0000
     19 C         144.2855  143.0226  163.6849 C.ar    1  UNL1       -0.0000
     20 C         144.1831  143.6407  165.0478 C.ar    1  UNL1       -0.0000
     21 C         143.7404  142.8110  166.2163 C.ar    1  UNL1       -0.0003
     22 C         143.4001  141.3631  166.0219 C.ar    1  UNL1       -0.0027
@<TRIPOS>BOND
     1     1     2    1
     2     2     3    1
     3     3     4    1
     4     4     5    2
     5     5     6    1
     6     6     7    3
     7     7     8    1
     8     8     9    1
     9     8    10    1
    10     8    11    1
    11     2    12    1
    12    12    13    1
    13    13    14   ar
    14    14    15   ar
    15    15    16   ar
    16    16    17   ar
    17    17    18   ar
    18    18    19   ar
    19    19    20   ar
    20    20    21   ar
    21    21    22   ar
    22    22    13   ar
    23    22    17   ar
@<TRIPOS>MOLECULE
*****
 22 23 0 0 0
SMALL
GASTEIGER

@<TRIPOS>ATOM
      1 C         139.6104  146.3114  161.6305 C.3     1  UNL1        0.0902
      2 N         139.8359  145.0579  162.4229 N.3     1  UNL1       -0.2639
      3 C         138.9298  144.7228  163.5704 C.3     1  UNL1        0.0998
      4 C         139.5025  144.5067  164.9398 C.2     1  UNL1        0.0001
      5 C         139.6704  143.1141  165.4713 C.2     1  UNL1        0.0461
      6 C         140.2431  142.8979  166.8407 C.1     1  UNL1       -0.0641
      7 C         140.8158  142.6818  168.2101 C.1     1  UNL1       -0.0884
      8 C         141.3884  142.4657  169.5795 C.3     1  UNL1        0.0544
      9 C         142.7560  142.3106  168.9832 C.3     1  UNL1        0.0130
     10 C         140.0209  142.6208  170.1759 C.3     1  UNL1        0.0130
     11 C         141.9612  142.2495  170.9490 C.3     1  UNL1        0.0130
     12 C         140.9673  144.1395  162.0677 C.3     1  UNL1        0.0994
     13 C         142.0840  143.9129  163.0433 C.ar    1  UNL1       -0.0061
     14 C         142.8858  145.0755  163.5487 C.ar    1  UNL1       -0.0029
     15 C         144.0024  144.8490  164.5243 C.ar    1  UNL1       -0.0003
     16 C         144.3172  143.4598  164.9945 C.ar    1  UNL1       -0.0000
     17 C         143.5154  142.2972  164.4892 C.ar    1  UNL1       -0.0003
     18 C         143.8302  140.9080  164.9594 C.ar    1  UNL1       -0.0000
     19 C         143.0284  139.7454  164.4541 C.ar    1  UNL1       -0.0000
     20 C         141.9117  139.9720  163.4784 C.ar    1  UNL1       -0.0000
     21 C         141.5969  141.3611  163.0082 C.ar    1  UNL1       -0.0003
     22 C         142.3987  142.5237  163.5136 C.ar    1  UNL1       -0.0027
@<TRIPOS>BOND
     1     1     2    1
     2     2     3    1
     3     3     4    1
     4     4     5    2
     5     5     6    1
     6     6     7    3
     7     7     8    1
     8     8     9    1
     9     8    10    1
    10     8    11    1
    11     2    12    1
    12    12    13    1
    13    13    14   ar
    14    14    15   ar
    15    15    16   ar
    16    16    17   ar
    17    17    18   ar
    18    18    19   ar
    19    19    20   ar
    20    20    21   ar
    21    21    22   ar
    22    22    13   ar
    23    22    17   ar
@<TRIPOS>MOLECULE
*****
 22 23 0 0 0
SMALL
GASTEIGER

@<TRIPOS>ATOM
      1 C         137.4041  139.4859  160.8855 C.3     1  UNL1        0.0902
      2 N         138.4600  139.4738  161.9508 N.3     1  UNL1       -0.2639
      3 C         138.4980  138.3614  162.9565 C.3     1  UNL1        0.0998
      4 C         139.0760  138.6021  164.3195 C.2     1  UNL1        0.0001
      5 C         138.3134  139.4128  165.3251 C.2     1  UNL1        0.0461
      6 C         138.8913  139.6535  166.6882 C.1     1  UNL1       -0.0641
      7 C         139.4693  139.8943  168.0513 C.1     1  UNL1       -0.0884
      8 C         140.0472  140.1350  169.4143 C.3     1  UNL1        0.0544
      9 C         138.6641  140.2932  169.9728 C.3     1  UNL1        0.0130
     10 C         141.4303  139.9768  168.8559 C.3     1  UNL1        0.0130
     11 C         140.6251  140.3758  170.7775 C.3     1  UNL1        0.0130
     12 C         139.4778  140.5739  162.0105 C.3     1  UNL1        0.0994
     13 C         139.3937  141.6160  163.0862 C.ar    1  UNL1       -0.0061
     14 C         138.1888  142.5046  163.1770 C.ar    1  UNL1       -0.0029
     15 C         138.1047  143.5467  164.2527 C.ar    1  UNL1       -0.0003
     16 C         139.2255  143.7000  165.2376 C.ar    1  UNL1       -0.0000
     17 C         140.4306  142.8114  165.1468 C.ar    1  UNL1       -0.0003
     18 C         141.5515  142.9648  166.1317 C.ar    1  UNL1       -0.0000
     19 C         142.7565  142.0761  166.0409 C.ar    1  UNL1       -0.0000
     20 C         142.8406  141.0341  164.9652 C.ar    1  UNL1       -0.0000
     21 C         141.7197  140.8807  163.9803 C.ar    1  UNL1       -0.0003
     22 C         140.5147  141.7693  164.0711 C.ar    1  UNL1       -0.0027
@<TRIPOS>BOND
     1     1     2    1
     2     2     3    1
     3     3     4    1
     4     4     5    2
     5     5     6    1
     6     6     7    3
     7     7     8    1
     8     8     9    1
     9     8    10    1
    10     8    11    1
    11     2    12    1
    12    12    13    1
    13    13    14   ar
    14    14    15   ar
    15    15    16   ar
    16    16    17   ar
    17    17    18   ar
    18    18    19   ar
    19    19    20   ar
    20    20    21   ar
    21    21    22   ar
    22    22    13   ar
    23    22    17   ar
@<TRIPOS>MOLECULE
*****
 22 23 0 0 0
SMALL
GASTEIGER

@<TRIPOS>ATOM
      1 C         141.8435  141.6135  171.1023 C.3     1  UNL1        0.0902
      2 N         141.1949  141.5786  169.7503 N.3     1  UNL1       -0.2639
      3 C         141.0781  142.8367  168.9418 C.3     1  UNL1        0.0998
      4 C         140.3394  142.8235  167.6364 C.2     1  UNL1        0.0001
      5 C         141.0989  142.7388  166.3457 C.2     1  UNL1        0.0461
      6 C         140.3603  142.7256  165.0402 C.1     1  UNL1       -0.0641
      7 C         139.6216  142.7123  163.7348 C.1     1  UNL1       -0.0884
      8 C         138.8829  142.6991  162.4294 C.3     1  UNL1        0.0544
      9 C         137.8585  143.6347  162.9995 C.3     1  UNL1        0.0130
     10 C         139.9074  141.7634  161.8592 C.3     1  UNL1        0.0130
     11 C         138.1442  142.6858  161.1239 C.3     1  UNL1        0.0130
     12 C         140.6630  140.2857  169.2067 C.3     1  UNL1        0.0994
     13 C         141.2752  139.6802  167.9784 C.ar    1  UNL1       -0.0061
     14 C         142.7365  139.3424  167.9573 C.ar    1  UNL1       -0.0029
     15 C         143.3486  138.7369  166.7290 C.ar    1  UNL1       -0.0003
     16 C         142.4994  138.4691  165.5219 C.ar    1  UNL1       -0.0000
     17 C         141.0380  138.8068  165.5430 C.ar    1  UNL1       -0.0003
     18 C         140.1888  138.5390  164.3359 C.ar    1  UNL1       -0.0000
     19 C         138.7275  138.8767  164.3571 C.ar    1  UNL1       -0.0000
     20 C         138.1154  139.4822  165.5854 C.ar    1  UNL1       -0.0000
     21 C         138.9646  139.7500  166.7925 C.ar    1  UNL1       -0.0003
     22 C         140.4259  139.4123  166.7713 C.ar    1  UNL1       -0.0027
@<TRIPOS>BOND
     1     1     2    1
     2     2     3    1
     3     3     4    1
     4     4     5    2
     5     5     6    1
     6     6     7    3
     7     7     8    1
     8     8     9    1
     9     8    10    1
    10     8    11    1
    11     2    12    1
    12    12    13    1
    13    13    14   ar
    14    14    15   ar
    15    15    16   ar
    16    16    17   ar
    17    17    18   ar
    18    18    19   ar
    19    19    20   ar
    20    20    21   ar
    21    21    22   ar
    22    22    13   ar
    23    22    17   ar
@<TRIPOS>MOLECULE
*****
 22 23 0 0 0
SMALL
GASTEIGER

@<TRIPOS>ATOM
      1 C         142.4476  137.9496  161.3777 C.3     1  UNL1        0.0902
      2 N         142.0148  138.7655  162.5596 N.3     1  UNL1       -0.2639
      3 C         141.9742  138.1453  163.9248 C.3     1  UNL1        0.0998
      4 C         141.7938  139.0106  165.1367 C.2     1  UNL1        0.0001
      5 C         140.4320  139.1776  165.7430 C.2     1  UNL1        0.0461
      6 C         140.2516  140.0430  166.9549 C.1     1  UNL1       -0.0641
      7 C         140.0712  140.9084  168.1667 C.1     1  UNL1       -0.0884
      8 C         139.8908  141.7737  169.3785 C.3     1  UNL1        0.0544
      9 C         139.2048  140.6420  170.0846 C.3     1  UNL1        0.0130
     10 C         140.5767  142.9055  168.6725 C.3     1  UNL1        0.0130
     11 C         139.7103  142.6391  170.5904 C.3     1  UNL1        0.0130
     12 C         141.6226  140.2017  162.3764 C.3     1  UNL1        0.0994
     13 C         140.1976  140.6221  162.5824 C.ar    1  UNL1       -0.0061
     14 C         139.0904  139.8852  161.8888 C.ar    1  UNL1       -0.0029
     15 C         137.6654  140.3056  162.0948 C.ar    1  UNL1       -0.0003
     16 C         137.3475  141.4631  162.9943 C.ar    1  UNL1       -0.0000
     17 C         138.4546  142.2002  163.6879 C.ar    1  UNL1       -0.0003
     18 C         138.1367  143.3576  164.5874 C.ar    1  UNL1       -0.0000
     19 C         139.2439  144.0946  165.2810 C.ar    1  UNL1       -0.0000
     20 C         140.6689  143.6741  165.0750 C.ar    1  UNL1       -0.0000
     21 C         140.9868  142.5167  164.1755 C.ar    1  UNL1       -0.0003
     22 C         139.8797  141.7797  163.4819 C.ar    1  UNL1       -0.0027
@<TRIPOS>BOND
     1     1     2    1
     2     2     3    1
     3     3     4    1
     4     4     5    2
     5     5     6    1
     6     6     7    3
     7     7     8    1
     8     8     9    1
     9     8    10    1
    10     8    11    1
    11     2    12    1
    12    12    13    1
    13    13    14   ar
    14    14    15   ar
    15    15    16   ar
    16    16    17   ar
    17    17    18   ar
    18    18    19   ar
    19    19    20   ar
    20    20    21   ar
    21    21    22   ar
    22    22    13   ar
    23    22    17   ar
@<TRIPOS>MOLECULE
*****
 22 23 0 0 0
SMALL
GASTEIGER

@<TRIPOS>ATOM
      1 C         138.1977  142.1701  161.2674 C.3     1  UNL1        0.0902
      2 N         138.5508  140.9382  162.0470 N.3     1  UNL1       -0.2639
      3 C         137.7250  140.5397  163.2342 C.3     1  UNL1        0.0998
      4 C         138.2580  140.7445  164.6213 C.2     1  UNL1        0.0001
      5 C         138.4913  139.5641  165.5169 C.2     1  UNL1        0.0461
      6 C         139.0243  139.7689  166.9041 C.1     1  UNL1       -0.0641
      7 C         139.5573  139.9737  168.2911 C.1     1  UNL1       -0.0884
      8 C         140.0902  140.1785  169.6782 C.3     1  UNL1        0.0544
      9 C         141.4768  139.8818  169.1892 C.3     1  UNL1        0.0130
     10 C         138.7036  140.4753  170.1671 C.3     1  UNL1        0.0130
     11 C         140.6232  140.3833  171.0653 C.3     1  UNL1        0.0130
     12 C         139.7295  140.1049  161.6395 C.3     1  UNL1        0.0994
     13 C         140.4792  139.3121  162.6688 C.ar    1  UNL1       -0.0061
     14 C         140.2704  137.8303  162.7726 C.ar    1  UNL1       -0.0029
     15 C         141.0201  137.0375  163.8019 C.ar    1  UNL1       -0.0003
     16 C         141.9787  137.7264  164.7273 C.ar    1  UNL1       -0.0000
     17 C         142.1876  139.2082  164.6235 C.ar    1  UNL1       -0.0003
     18 C         143.1462  139.8972  165.5489 C.ar    1  UNL1       -0.0000
     19 C         143.3551  141.3789  165.4450 C.ar    1  UNL1       -0.0000
     20 C         142.6054  142.1717  164.4158 C.ar    1  UNL1       -0.0000
     21 C         141.6467  141.4828  163.4904 C.ar    1  UNL1       -0.0003
     22 C         141.4379  140.0011  163.5942 C.ar    1  UNL1       -0.0027
@<TRIPOS>BOND
     1     1     2    1
     2     2     3    1
     3     3     4    1
     4     4     5    2
     5     5     6    1
     6     6     7    3
     7     7     8    1
     8     8     9    1
     9     8    10    1
    10     8    11    1
    11     2    12    1
    12    12    13    1
    13    13    14   ar
    14    14    15   ar
    15    15    16   ar
    16    16    17   ar
    17    17    18   ar
    18    18    19   ar
    19    19    20   ar
    20    20    21   ar
    21    21    22   ar
    22    22    13   ar
    23    22    17   ar
@<TRIPOS>MOLECULE
*****
 22 23 0 0 0
SMALL
GASTEIGER

@<TRIPOS>ATOM
      1 C         142.9660  137.7423  160.0413 C.3     1  UNL1        0.0902
      2 N         142.4204  138.0508  161.4040 N.3     1  UNL1       -0.2639
      3 C         143.3541  138.4058  162.5230 C.3     1  UNL1        0.0998
      4 C         142.8493  138.4527  163.9347 C.2     1  UNL1        0.0001
      5 C         142.8438  139.7507  164.6865 C.2     1  UNL1        0.0461
      6 C         142.3389  139.7976  166.0983 C.1     1  UNL1       -0.0641
      7 C         141.8341  139.8446  167.5100 C.1     1  UNL1       -0.0884
      8 C         141.3294  139.8916  168.9217 C.3     1  UNL1        0.0544
      9 C         140.1015  140.6180  168.4584 C.3     1  UNL1        0.0130
     10 C         142.5572  139.1651  169.3849 C.3     1  UNL1        0.0130
     11 C         140.8245  139.9386  170.3334 C.3     1  UNL1        0.0130
     12 C         140.9410  138.0044  161.6477 C.3     1  UNL1        0.0994
     13 C         140.2481  139.1747  162.2803 C.ar    1  UNL1       -0.0061
     14 C         140.2882  140.5189  161.6159 C.ar    1  UNL1       -0.0029
     15 C         139.5952  141.6892  162.2485 C.ar    1  UNL1       -0.0003
     16 C         138.8621  141.5153  163.5455 C.ar    1  UNL1       -0.0000
     17 C         138.8220  140.1711  164.2100 C.ar    1  UNL1       -0.0003
     18 C         138.0889  139.9972  165.5070 C.ar    1  UNL1       -0.0000
     19 C         138.0488  138.6530  166.1714 C.ar    1  UNL1       -0.0000
     20 C         138.7418  137.4827  165.5388 C.ar    1  UNL1       -0.0000
     21 C         139.4748  137.6566  164.2418 C.ar    1  UNL1       -0.0003
     22 C         139.5149  139.0008  163.5774 C.ar    1  UNL1       -0.0027
@<TRIPOS>BOND
     1     1     2    1
     2     2     3    1
     3     3     4    1
     4     4     5    2
     5     5     6    1
     6     6     7    3
     7     7     8    1
     8     8     9    1
     9     8    10    1
    10     8    11    1
    11     2    12    1
    12    12    13    1
    13    13    14   ar
    14    14    15   ar
    15    15    16   ar
    16    16    17   ar
    17    17    18   ar
    18    18    19   ar
    19    19    20   ar
    20    20    21   ar
    21    21    22   ar
    22    22    13   ar
    23    22    17   ar
@<TRIPOS>MOLECULE
*****
 22 23 0 0 0
SMALL
GASTEIGER

@<TRIPOS>ATOM
      1 C         138.3340  140.9241  160.9279 C.3     1  UNL1        0.0902
      2 N         139.2911  140.8865  162.0823 N.3     1  UNL1       -0.2639
      3 C         138.8437  140.3515  163.4103 C.3     1  UNL1        0.0998
      4 C         139.6437  140.6444  164.6449 C.2     1  UNL1        0.0001
      5 C         139.4195  141.9220  165.3982 C.2     1  UNL1        0.0461
      6 C         140.2195  142.2150  166.6328 C.1     1  UNL1       -0.0641
      7 C         141.0194  142.5080  167.8674 C.1     1  UNL1       -0.0884
      8 C         141.8193  142.8010  169.1021 C.3     1  UNL1        0.0544
      9 C         140.6035  143.3958  169.7486 C.3     1  UNL1        0.0130
     10 C         143.0350  142.2061  168.4556 C.3     1  UNL1        0.0130
     11 C         142.6191  143.0940  170.3368 C.3     1  UNL1        0.0130
     12 C         140.6955  141.3838  161.9086 C.3     1  UNL1        0.0994
     13 C         141.0893  142.7245  162.4540 C.ar    1  UNL1       -0.0061
     14 C         140.2849  143.9417  162.1056 C.ar    1  UNL1       -0.0029
     15 C         140.6786  145.2823  162.6510 C.ar    1  UNL1       -0.0003
     16 C         141.8767  145.4059  163.5449 C.ar    1  UNL1       -0.0000
     17 C         142.6812  144.1888  163.8935 C.ar    1  UNL1       -0.0003
     18 C         143.8793  144.3123  164.7874 C.ar    1  UNL1       -0.0000
     19 C         144.6837  143.0952  165.1359 C.ar    1  UNL1       -0.0000
     20 C         144.2900  141.7545  164.5904 C.ar    1  UNL1       -0.0000
     21 C         143.0919  141.6309  163.6965 C.ar    1  UNL1       -0.0003
     22 C         142.2875  142.8481  163.3480 C.ar    1  UNL1       -0.0027
@<TRIPOS>BOND
     1     1     2    1
     2     2     3    1
     3     3     4    1
     4     4     5    2
     5     5     6    1
     6     6     7    3
     7     7     8    1
     8     8     9    1
     9     8    10    1
    10     8    11    1
    11     2    12    1
    12    12    13    1
    13    13    14   ar
    14    14    15   ar
    15    15    16   ar
    16    16    17   ar
    17    17    18   ar
    18    18    19   ar
    19    19    20   ar
    20    20    21   ar
    21    21    22   ar
    22    22    13   ar
    23    22    17   ar
