@<TRIPOS>MOLECULE
*****
 39 43 0 0 0
SMALL
GASTEIGER

@<TRIPOS>ATOM
      1 C         139.1457  138.5683  162.5151 C.3     1  UNL1        0.2588
      2 N         140.2731  139.9338  164.4164 N.am    1  UNL1       -0.2664
      3 C         139.4674  138.7503  163.9689 C.2     1  UNL1        0.2689
      4 O         138.9836  137.7487  164.9752 O.2     1  UNL1       -0.2708
      5 H         140.5906  140.5912  163.7559 H       1  UNL1        0.1564
      6 C         141.2384  140.4797  168.7776 C.ar    1  UNL1        0.0877
      7 C         139.8959  140.8905  168.2494 C.ar    1  UNL1        0.0147
      8 C         139.5741  140.7086  166.7957 C.ar    1  UNL1        0.0352
      9 C         140.5948  140.1158  165.8701 C.ar    1  UNL1        0.1343
     10 N         141.9373  139.7050  166.3982 N.ar    1  UNL1       -0.2283
     11 C         142.2591  139.8869  167.8520 C.ar    1  UNL1        0.1105
     12 N         141.8820  140.8437  171.6851 N.1     1  UNL1       -0.1908
     13 C         141.5601  140.6617  170.2313 C.1     1  UNL1        0.1020
     14 C         137.9950  139.3108  161.9030 C.3     1  UNL1        0.1261
     15 N         137.8895  140.7980  162.0673 N.3     1  UNL1       -0.2650
     16 C         137.3427  141.7124  163.1233 C.3     1  UNL1        0.1033
     17 C         137.7403  142.9013  162.2997 C.3     1  UNL1        0.1423
     18 O         137.6349  144.3885  162.4640 O.3     1  UNL1       -0.3816
     19 C         138.2871  141.9870  161.2438 C.3     1  UNL1        0.1033
     20 H         137.2050  144.5907  163.3097 H       1  UNL1        0.2105
     21 O         139.9747  137.6440  161.6735 O.3     1  UNL1       -0.4529
     22 C         141.3598  138.0452  161.2604 C.ar    1  UNL1        0.2312
     23 N         142.5333  137.6862  162.1229 N.ar    1  UNL1       -0.1892
     24 C         143.9183  138.0874  161.7097 C.ar    1  UNL1        0.2029
     25 N         144.1297  138.8477  160.4341 N.ar    1  UNL1       -0.2046
     26 C         142.9562  139.2067  159.5716 C.ar    1  UNL1        0.1715
     27 C         141.5712  138.8055  159.9847 C.ar    1  UNL1        0.1098
     28 C         140.6149  139.2961  158.9384 C.ar    1  UNL1        0.1283
     29 N         141.4089  140.0005  157.8786 N.ar    1  UNL1       -0.1619
     30 N         142.8559  139.9453  158.2699 N.ar    1  UNL1       -0.2105
     31 C         144.0015  140.5266  157.4955 C.ar    1  UNL1        0.1045
     32 C         144.5298  139.8116  156.2874 C.ar    1  UNL1        0.0760
     33 CL        143.9123  138.5152  155.8535 Cl      1  UNL1       -0.0807
     34 C         145.6754  140.3929  155.5130 C.ar    1  UNL1        0.0130
     35 C         146.2928  141.6893  155.9468 C.ar    1  UNL1        0.0017
     36 C         145.7646  142.4043  157.1549 C.ar    1  UNL1        0.0119
     37 C         144.6190  141.8230  157.9293 C.ar    1  UNL1        0.0870
     38 C         144.0909  142.5381  159.1375 C.1     1  UNL1        0.1020
     39 N         143.5627  143.2531  160.3457 N.1     1  UNL1       -0.1908
@<TRIPOS>BOND
     1    12    13    3
     2    13     6    1
     3     6     7   ar
     4     7     8   ar
     5     8     9   ar
     6     9     2    1
     7     2     3   am
     8     3     4    2
     9     3     1    1
    10     1    14    1
    11    14    15    1
    12    15    16    1
    13    16    17    1
    14    17    18    1
    15    17    19    1
    16     1    21    1
    17    21    22    1
    18    22    23   ar
    19    23    24   ar
    20    24    25   ar
    21    25    26   ar
    22    26    27   ar
    23    27    28   ar
    24    28    29   ar
    25    29    30   ar
    26    30    31    1
    27    31    32   ar
    28    32    33    1
    29    32    34   ar
    30    34    35   ar
    31    35    36   ar
    32    36    37   ar
    33    37    38    1
    34    38    39    3
    35     9    10   ar
    36    10    11   ar
    37    11     6   ar
    38    19    15    1
    39    27    22   ar
    40    37    31   ar
    41    30    26   ar
    42     2     5    1
    43    18    20    1
@<TRIPOS>MOLECULE
*****
 39 43 0 0 0
SMALL
GASTEIGER

@<TRIPOS>ATOM
      1 C         138.8210  138.6766  163.0754 C.3     1  UNL1        0.2588
      2 N         139.3393  140.4391  164.9126 N.am    1  UNL1       -0.2664
      3 C         139.0866  139.0157  164.5123 C.2     1  UNL1        0.2689
      4 O         139.0994  137.9316  165.5487 O.2     1  UNL1       -0.2708
      5 H         139.3309  141.1507  164.2323 H       1  UNL1        0.1564
      6 C         140.1360  141.4565  169.2230 C.ar    1  UNL1        0.0877
      7 C         140.5588  142.4026  168.1385 C.ar    1  UNL1        0.0147
      8 C         140.2933  142.0635  166.7017 C.ar    1  UNL1        0.0352
      9 C         139.6049  140.7782  166.3494 C.ar    1  UNL1        0.1343
     10 N         139.1820  139.8321  167.4338 N.ar    1  UNL1       -0.2283
     11 C         139.4476  140.1712  168.8706 C.ar    1  UNL1        0.1105
     12 N         140.6671  142.1348  172.0967 N.1     1  UNL1       -0.1908
     13 C         140.4015  141.7956  170.6598 C.1     1  UNL1        0.1020
     14 C         139.6026  137.5856  162.4054 C.3     1  UNL1        0.1261
     15 N         141.0666  137.7691  162.1353 N.3     1  UNL1       -0.2650
     16 C         141.9088  137.9040  160.9014 C.3     1  UNL1        0.1033
     17 C         143.1370  138.0286  161.7534 C.3     1  UNL1        0.1423
     18 O         144.6011  138.2120  161.4833 O.3     1  UNL1       -0.3816
     19 C         142.2949  137.8936  162.9872 C.3     1  UNL1        0.1033
     20 H         144.7502  138.2561  160.5258 H       1  UNL1        0.2105
     21 O         137.7739  139.4285  162.3085 O.3     1  UNL1       -0.4529
     22 C         138.0271  140.8451  161.8847 C.ar    1  UNL1        0.2312
     23 N         137.5626  141.9805  162.7478 N.ar    1  UNL1       -0.1892
     24 C         137.8158  143.3969  162.3240 C.ar    1  UNL1        0.2029
     25 N         138.5334  143.6779  161.0371 N.ar    1  UNL1       -0.2046
     26 C         138.9979  142.5424  160.1740 C.ar    1  UNL1        0.1715
     27 C         138.7447  141.1260  160.5978 C.ar    1  UNL1        0.1098
     28 C         139.3156  140.2190  159.5482 C.ar    1  UNL1        0.1283
     29 N         139.9215  141.0749  158.4758 N.ar    1  UNL1       -0.1619
     30 N         139.7252  142.5109  158.8626 N.ar    1  UNL1       -0.2105
     31 C         140.1769  143.7055  158.0760 C.ar    1  UNL1        0.1045
     32 C         139.4224  144.1248  156.8492 C.ar    1  UNL1        0.0760
     33 CL        138.2161  143.3494  156.4090 Cl      1  UNL1       -0.0807
     34 C         139.8741  145.3195  156.0626 C.ar    1  UNL1        0.0130
     35 C         141.0803  146.0949  156.5028 C.ar    1  UNL1        0.0017
     36 C         141.8348  145.6757  157.7295 C.ar    1  UNL1        0.0119
     37 C         141.3831  144.4810  158.5161 C.ar    1  UNL1        0.0870
     38 C         142.1376  144.0618  159.7428 C.1     1  UNL1        0.1020
     39 N         142.8922  143.6426  160.9696 N.1     1  UNL1       -0.1908
@<TRIPOS>BOND
     1    12    13    3
     2    13     6    1
     3     6     7   ar
     4     7     8   ar
     5     8     9   ar
     6     9     2    1
     7     2     3   am
     8     3     4    2
     9     3     1    1
    10     1    14    1
    11    14    15    1
    12    15    16    1
    13    16    17    1
    14    17    18    1
    15    17    19    1
    16     1    21    1
    17    21    22    1
    18    22    23   ar
    19    23    24   ar
    20    24    25   ar
    21    25    26   ar
    22    26    27   ar
    23    27    28   ar
    24    28    29   ar
    25    29    30   ar
    26    30    31    1
    27    31    32   ar
    28    32    33    1
    29    32    34   ar
    30    34    35   ar
    31    35    36   ar
    32    36    37   ar
    33    37    38    1
    34    38    39    3
    35     9    10   ar
    36    10    11   ar
    37    11     6   ar
    38    19    15    1
    39    27    22   ar
    40    37    31   ar
    41    30    26   ar
    42     2     5    1
    43    18    20    1
@<TRIPOS>MOLECULE
*****
 39 43 0 0 0
SMALL
GASTEIGER

@<TRIPOS>ATOM
      1 C         143.9669  142.7757  162.7366 C.3     1  UNL1        0.2588
      2 N         142.4538  141.9438  164.6780 N.am    1  UNL1       -0.2664
      3 C         143.5703  142.8146  164.1828 C.2     1  UNL1        0.2689
      4 O         144.2901  143.7244  165.1337 O.2     1  UNL1       -0.2708
      5 H         141.9814  141.3467  164.0539 H       1  UNL1        0.1564
      6 C         141.2641  142.0605  169.0163 C.ar    1  UNL1        0.0877
      7 C         140.4350  142.7766  167.9916 C.ar    1  UNL1        0.0147
      8 C         140.8315  142.7377  166.5456 C.ar    1  UNL1        0.0352
      9 C         142.0572  141.9827  166.1241 C.ar    1  UNL1        0.1343
     10 N         142.8863  141.2667  167.1486 N.ar    1  UNL1       -0.2283
     11 C         142.4898  141.3056  168.5948 C.ar    1  UNL1        0.1105
     12 N         140.4708  142.1383  171.9085 N.1     1  UNL1       -0.1908
     13 C         140.8675  142.0995  170.4624 C.1     1  UNL1        0.1020
     14 C         144.5576  141.5260  162.1544 C.3     1  UNL1        0.1261
     15 N         143.7412  140.2692  162.0915 N.3     1  UNL1       -0.2650
     16 C         143.8508  138.9016  162.6982 C.3     1  UNL1        0.1033
     17 C         142.5867  138.4918  162.0025 C.3     1  UNL1        0.1423
     18 O         141.7703  137.2350  161.9396 O.3     1  UNL1       -0.3816
     19 C         142.4771  139.8592  161.3958 C.3     1  UNL1        0.1033
     20 H         142.1865  136.5513  162.4875 H       1  UNL1        0.2105
     21 O         143.7726  143.9865  161.8728 O.3     1  UNL1       -0.4529
     22 C         142.4101  144.3162  161.3390 C.ar    1  UNL1        0.2312
     23 N         141.4299  145.0627  162.1945 N.ar    1  UNL1       -0.1892
     24 C         140.0675  145.3924  161.6606 C.ar    1  UNL1        0.2029
     25 N         139.6853  144.9756  160.2713 N.ar    1  UNL1       -0.2046
     26 C         140.6655  144.2291  159.4158 C.ar    1  UNL1        0.1715
     27 C         142.0279  143.8994  159.9497 C.ar    1  UNL1        0.1098
     28 C         142.7774  143.1588  158.8821 C.ar    1  UNL1        0.1283
     29 N         141.8781  143.0307  157.6884 N.ar    1  UNL1       -0.1619
     30 N         140.5729  143.6922  158.0183 N.ar    1  UNL1       -0.2105
     31 C         139.3838  143.7982  157.1101 C.ar    1  UNL1        0.1045
     32 C         139.2868  144.9300  156.1305 C.ar    1  UNL1        0.0760
     33 CL        140.3789  145.9558  156.0590 Cl      1  UNL1       -0.0807
     34 C         138.0977  145.0360  155.2223 C.ar    1  UNL1        0.0130
     35 C         137.0056  144.0102  155.2937 C.ar    1  UNL1        0.0017
     36 C         137.1026  142.8785  156.2733 C.ar    1  UNL1        0.0119
     37 C         138.2917  142.7725  157.1815 C.ar    1  UNL1        0.0870
     38 C         138.3886  141.6407  158.1611 C.1     1  UNL1        0.1020
     39 N         138.4856  140.5090  159.1408 N.1     1  UNL1       -0.1908
@<TRIPOS>BOND
     1    12    13    3
     2    13     6    1
     3     6     7   ar
     4     7     8   ar
     5     8     9   ar
     6     9     2    1
     7     2     3   am
     8     3     4    2
     9     3     1    1
    10     1    14    1
    11    14    15    1
    12    15    16    1
    13    16    17    1
    14    17    18    1
    15    17    19    1
    16     1    21    1
    17    21    22    1
    18    22    23   ar
    19    23    24   ar
    20    24    25   ar
    21    25    26   ar
    22    26    27   ar
    23    27    28   ar
    24    28    29   ar
    25    29    30   ar
    26    30    31    1
    27    31    32   ar
    28    32    33    1
    29    32    34   ar
    30    34    35   ar
    31    35    36   ar
    32    36    37   ar
    33    37    38    1
    34    38    39    3
    35     9    10   ar
    36    10    11   ar
    37    11     6   ar
    38    19    15    1
    39    27    22   ar
    40    37    31   ar
    41    30    26   ar
    42     2     5    1
    43    18    20    1
@<TRIPOS>MOLECULE
*****
 39 43 0 0 0
SMALL
GASTEIGER

@<TRIPOS>ATOM
      1 C         140.9959  139.1549  162.8707 C.3     1  UNL1        0.2588
      2 N         140.4560  140.7482  164.8506 N.am    1  UNL1       -0.2664
      3 C         140.9940  139.4433  164.3427 C.2     1  UNL1        0.2689
      4 O         141.5302  138.4270  165.3069 O.2     1  UNL1       -0.2708
      5 H         140.1041  141.4152  164.2178 H       1  UNL1        0.1564
      6 C         140.4502  141.6137  169.2665 C.ar    1  UNL1        0.0877
      7 C         141.1748  142.5283  168.3239 C.ar    1  UNL1        0.0147
      8 C         141.1767  142.2398  166.8519 C.ar    1  UNL1        0.0352
      9 C         140.4540  141.0367  166.3225 C.ar    1  UNL1        0.1343
     10 N         139.7294  140.1221  167.2651 N.ar    1  UNL1       -0.2283
     11 C         139.7275  140.4106  168.7371 C.ar    1  UNL1        0.1105
     12 N         140.4464  142.1908  172.2105 N.1     1  UNL1       -0.1908
     13 C         140.4483  141.9022  170.7385 C.1     1  UNL1        0.1020
     14 C         142.2899  138.8892  162.1601 C.3     1  UNL1        0.1261
     15 N         143.4852  139.7543  162.4303 N.3     1  UNL1       -0.2650
     16 C         144.2607  140.7681  161.6424 C.3     1  UNL1        0.1033
     17 C         145.1756  140.9776  162.8124 C.3     1  UNL1        0.1423
     18 O         146.3709  141.8426  163.0825 O.3     1  UNL1       -0.3816
     19 C         144.4003  139.9638  163.6003 C.3     1  UNL1        0.1033
     20 H         146.5684  142.3758  162.2967 H       1  UNL1        0.2105
     21 O         139.7037  139.1320  162.1093 O.3     1  UNL1       -0.4529
     22 C         139.1652  140.3963  161.5079 C.ar    1  UNL1        0.2312
     23 N         138.5762  141.4556  162.3916 N.ar    1  UNL1       -0.1892
     24 C         138.0376  142.7198  161.7902 C.ar    1  UNL1        0.2029
     25 N         138.0880  142.9247  160.3051 N.ar    1  UNL1       -0.2046
     26 C         138.6770  141.8654  159.4214 C.ar    1  UNL1        0.1715
     27 C         139.2156  140.6012  160.0228 C.ar    1  UNL1        0.1098
     28 C         139.7331  139.7413  158.9079 C.ar    1  UNL1        0.1283
     29 N         139.5144  140.4741  157.6176 N.ar    1  UNL1       -0.1619
     30 N         138.8617  141.7869  157.9349 N.ar    1  UNL1       -0.2105
     31 C         138.4636  142.8368  156.9403 C.ar    1  UNL1        0.1045
     32 C         139.3322  144.0421  156.7338 C.ar    1  UNL1        0.0760
     33 CL        140.5990  144.1976  157.5219 Cl      1  UNL1       -0.0807
     34 C         138.9341  145.0920  155.7392 C.ar    1  UNL1        0.0130
     35 C         137.6672  144.9367  154.9512 C.ar    1  UNL1        0.0017
     36 C         136.7986  143.7313  155.1577 C.ar    1  UNL1        0.0119
     37 C         137.1968  142.6814  156.1523 C.ar    1  UNL1        0.0870
     38 C         136.3281  141.4761  156.3587 C.1     1  UNL1        0.1020
     39 N         135.4594  140.2708  156.5652 N.1     1  UNL1       -0.1908
@<TRIPOS>BOND
     1    12    13    3
     2    13     6    1
     3     6     7   ar
     4     7     8   ar
     5     8     9   ar
     6     9     2    1
     7     2     3   am
     8     3     4    2
     9     3     1    1
    10     1    14    1
    11    14    15    1
    12    15    16    1
    13    16    17    1
    14    17    18    1
    15    17    19    1
    16     1    21    1
    17    21    22    1
    18    22    23   ar
    19    23    24   ar
    20    24    25   ar
    21    25    26   ar
    22    26    27   ar
    23    27    28   ar
    24    28    29   ar
    25    29    30   ar
    26    30    31    1
    27    31    32   ar
    28    32    33    1
    29    32    34   ar
    30    34    35   ar
    31    35    36   ar
    32    36    37   ar
    33    37    38    1
    34    38    39    3
    35     9    10   ar
    36    10    11   ar
    37    11     6   ar
    38    19    15    1
    39    27    22   ar
    40    37    31   ar
    41    30    26   ar
    42     2     5    1
    43    18    20    1
@<TRIPOS>MOLECULE
*****
 39 43 0 0 0
SMALL
GASTEIGER

@<TRIPOS>ATOM
      1 C         139.1411  138.7600  162.8770 C.3     1  UNL1        0.2588
      2 N         140.3962  140.2241  164.6181 N.am    1  UNL1       -0.2664
      3 C         139.3961  139.1517  164.3024 C.2     1  UNL1        0.2689
      4 O         138.6509  138.4710  165.4120 O.2     1  UNL1       -0.2708
      5 H         140.8853  140.6709  163.8898 H       1  UNL1        0.1564
      6 C         141.1612  141.3991  168.8940 C.ar    1  UNL1        0.0877
      7 C         140.4518  142.3456  167.9715 C.ar    1  UNL1        0.0147
      8 C         140.1968  141.9539  166.5462 C.ar    1  UNL1        0.0352
      9 C         140.6512  140.6158  166.0434 C.ar    1  UNL1        0.1343
     10 N         141.3606  139.6693  166.9658 N.ar    1  UNL1       -0.2283
     11 C         141.6156  140.0610  168.3912 C.ar    1  UNL1        0.1105
     12 N         141.6712  142.1825  171.7447 N.1     1  UNL1       -0.1908
     13 C         141.4162  141.7908  170.3193 C.1     1  UNL1        0.1020
     14 C         138.0969  139.4804  162.0765 C.3     1  UNL1        0.1261
     15 N         137.9437  140.9667  162.2085 N.3     1  UNL1       -0.2650
     16 C         137.3470  141.8846  163.2340 C.3     1  UNL1        0.1033
     17 C         137.7270  143.0686  162.3951 C.3     1  UNL1        0.1423
     18 O         137.5738  144.5549  162.5271 O.3     1  UNL1       -0.3816
     19 C         138.3236  142.1508  161.3697 C.3     1  UNL1        0.1033
     20 H         137.1197  144.7605  163.3592 H       1  UNL1        0.2105
     21 O         139.9304  137.6480  162.2521 O.3     1  UNL1       -0.4529
     22 C         141.2431  137.9413  161.5880 C.ar    1  UNL1        0.2312
     23 N         142.5199  137.8257  162.3666 N.ar    1  UNL1       -0.1892
     24 C         143.8324  138.1189  161.7025 C.ar    1  UNL1        0.2029
     25 N         143.8682  138.5277  160.2597 N.ar    1  UNL1       -0.2046
     26 C         142.5914  138.6433  159.4810 C.ar    1  UNL1        0.1715
     27 C         141.2788  138.3501  160.1452 C.ar    1  UNL1        0.1098
     28 C         140.1916  138.5473  159.1306 C.ar    1  UNL1        0.1283
     29 N         140.8324  138.9625  157.8395 N.ar    1  UNL1       -0.1619
     30 N         142.3155  139.0218  158.0561 N.ar    1  UNL1       -0.2105
     31 C         143.3424  139.3942  157.0281 C.ar    1  UNL1        0.1045
     32 C         143.9046  140.7845  156.9990 C.ar    1  UNL1        0.0760
     33 CL        143.4399  141.8026  157.9978 Cl      1  UNL1       -0.0807
     34 C         144.9315  141.1569  155.9710 C.ar    1  UNL1        0.0130
     35 C         145.3963  140.1390  154.9721 C.ar    1  UNL1        0.0017
     36 C         144.8342  138.7487  155.0013 C.ar    1  UNL1        0.0119
     37 C         143.8072  138.3763  156.0292 C.ar    1  UNL1        0.0870
     38 C         143.2451  136.9859  156.0583 C.1     1  UNL1        0.1020
     39 N         142.6829  135.5955  156.0874 N.1     1  UNL1       -0.1908
@<TRIPOS>BOND
     1    12    13    3
     2    13     6    1
     3     6     7   ar
     4     7     8   ar
     5     8     9   ar
     6     9     2    1
     7     2     3   am
     8     3     4    2
     9     3     1    1
    10     1    14    1
    11    14    15    1
    12    15    16    1
    13    16    17    1
    14    17    18    1
    15    17    19    1
    16     1    21    1
    17    21    22    1
    18    22    23   ar
    19    23    24   ar
    20    24    25   ar
    21    25    26   ar
    22    26    27   ar
    23    27    28   ar
    24    28    29   ar
    25    29    30   ar
    26    30    31    1
    27    31    32   ar
    28    32    33    1
    29    32    34   ar
    30    34    35   ar
    31    35    36   ar
    32    36    37   ar
    33    37    38    1
    34    38    39    3
    35     9    10   ar
    36    10    11   ar
    37    11     6   ar
    38    19    15    1
    39    27    22   ar
    40    37    31   ar
    41    30    26   ar
    42     2     5    1
    43    18    20    1
@<TRIPOS>MOLECULE
*****
 39 43 0 0 0
SMALL
GASTEIGER

@<TRIPOS>ATOM
      1 C         141.1102  144.4541  159.6987 C.3     1  UNL1        0.2588
      2 N         139.7938  145.6174  157.7845 N.am    1  UNL1       -0.2664
      3 C         141.0740  145.4007  158.5356 C.2     1  UNL1        0.2689
      4 O         142.3181  146.1304  158.1236 O.2     1  UNL1       -0.2708
      5 H         138.9773  145.1384  158.0550 H       1  UNL1        0.1564
      6 C         139.6853  148.4570  154.2953 C.ar    1  UNL1        0.0877
      7 C         140.4438  147.1672  154.1894 C.ar    1  UNL1        0.0147
      8 C         140.4800  146.2207  155.3524 C.ar    1  UNL1        0.0352
      9 C         139.7577  146.5639  156.6215 C.ar    1  UNL1        0.1343
     10 N         138.9992  147.8536  156.7274 N.ar    1  UNL1       -0.2283
     11 C         138.9630  148.8002  155.5643 C.ar    1  UNL1        0.1105
     12 N         139.6129  150.3501  151.9691 N.1     1  UNL1       -0.1908
     13 C         139.6491  149.4035  153.1322 C.1     1  UNL1        0.1020
     14 C         141.0921  142.9731  159.4613 C.3     1  UNL1        0.1261
     15 N         139.8888  142.1660  159.8492 N.3     1  UNL1       -0.2650
     16 C         138.4384  142.1729  159.4662 C.3     1  UNL1        0.1033
     17 C         138.1870  141.0245  160.3978 C.3     1  UNL1        0.1423
     18 O         136.9837  140.2173  160.7858 O.3     1  UNL1       -0.3816
     19 C         139.6372  141.0176  160.7808 C.3     1  UNL1        0.1033
     20 H         136.2075  140.5415  160.3026 H       1  UNL1        0.2105
     21 O         141.1643  144.9886  161.0992 O.3     1  UNL1       -0.4529
     22 C         140.2291  144.4535  162.1429 C.ar    1  UNL1        0.2312
     23 N         138.7902  144.8770  162.1486 N.ar    1  UNL1       -0.1892
     24 C         137.8551  144.3420  163.1922 C.ar    1  UNL1        0.2029
     25 N         138.3589  143.3834  164.2301 N.ar    1  UNL1       -0.2046
     26 C         139.7978  142.9599  164.2244 C.ar    1  UNL1        0.1715
     27 C         140.7329  143.4949  163.1808 C.ar    1  UNL1        0.1098
     28 C         142.0887  142.9014  163.4251 C.ar    1  UNL1        0.1283
     29 N         141.9914  141.9995  164.6197 N.ar    1  UNL1       -0.1619
     30 N         140.5756  142.0357  165.1137 N.ar    1  UNL1       -0.2105
     31 C         140.0328  141.2802  166.2904 C.ar    1  UNL1        0.1045
     32 C         140.3739  141.7170  167.6843 C.ar    1  UNL1        0.0760
     33 CL        141.2578  142.9092  167.9015 Cl      1  UNL1       -0.0807
     34 C         139.8311  140.9615  168.8610 C.ar    1  UNL1        0.0130
     35 C         138.9471  139.7693  168.6439 C.ar    1  UNL1        0.0017
     36 C         138.6060  139.3325  167.2500 C.ar    1  UNL1        0.0119
     37 C         139.1488  140.0880  166.0733 C.ar    1  UNL1        0.0870
     38 C         138.8076  139.6511  164.6795 C.1     1  UNL1        0.1020
     39 N         138.4665  139.2143  163.2857 N.1     1  UNL1       -0.1908
@<TRIPOS>BOND
     1    12    13    3
     2    13     6    1
     3     6     7   ar
     4     7     8   ar
     5     8     9   ar
     6     9     2    1
     7     2     3   am
     8     3     4    2
     9     3     1    1
    10     1    14    1
    11    14    15    1
    12    15    16    1
    13    16    17    1
    14    17    18    1
    15    17    19    1
    16     1    21    1
    17    21    22    1
    18    22    23   ar
    19    23    24   ar
    20    24    25   ar
    21    25    26   ar
    22    26    27   ar
    23    27    28   ar
    24    28    29   ar
    25    29    30   ar
    26    30    31    1
    27    31    32   ar
    28    32    33    1
    29    32    34   ar
    30    34    35   ar
    31    35    36   ar
    32    36    37   ar
    33    37    38    1
    34    38    39    3
    35     9    10   ar
    36    10    11   ar
    37    11     6   ar
    38    19    15    1
    39    27    22   ar
    40    37    31   ar
    41    30    26   ar
    42     2     5    1
    43    18    20    1
@<TRIPOS>MOLECULE
*****
 39 43 0 0 0
SMALL
GASTEIGER

@<TRIPOS>ATOM
      1 C         138.4392  142.9806  162.4293 C.3     1  UNL1        0.2588
      2 N         139.7547  141.9947  164.4412 N.am    1  UNL1       -0.2664
      3 C         138.6096  142.8044  163.9092 C.2     1  UNL1        0.2689
      4 O         137.6349  143.4381  164.8570 O.2     1  UNL1       -0.2708
      5 H         140.3944  141.5788  163.8190 H       1  UNL1        0.1564
      6 C         140.2660  141.4663  168.8807 C.ar    1  UNL1        0.0877
      7 C         139.7191  140.3435  168.0498 C.ar    1  UNL1        0.0147
      8 C         139.5487  140.5196  166.5699 C.ar    1  UNL1        0.0352
      9 C         139.9251  141.8185  165.9210 C.ar    1  UNL1        0.1343
     10 N         140.4720  142.9413  166.7518 N.ar    1  UNL1       -0.2283
     11 C         140.6425  142.7652  168.2317 C.ar    1  UNL1        0.1105
     12 N         140.6069  141.1139  171.8404 N.1     1  UNL1       -0.1908
     13 C         140.4365  141.2901  170.3605 C.1     1  UNL1        0.1020
     14 C         139.1349  144.1061  161.7229 C.3     1  UNL1        0.1261
     15 N         140.5636  144.4268  162.0486 N.3     1  UNL1       -0.2650
     16 C         141.2541  145.2453  163.0990 C.3     1  UNL1        0.1033
     17 C         142.5840  144.8804  162.5091 C.3     1  UNL1        0.1423
     18 O         144.0127  145.2011  162.8347 O.3     1  UNL1       -0.3816
     19 C         141.8936  144.0620  161.4587 C.3     1  UNL1        0.1033
     20 H         144.0450  145.7803  163.6121 H       1  UNL1        0.2105
     21 O         137.5730  142.0311  161.6559 O.3     1  UNL1       -0.4529
     22 C         138.0978  140.6788  161.2736 C.ar    1  UNL1        0.2312
     23 N         137.8105  139.4899  162.1418 N.ar    1  UNL1       -0.1892
     24 C         138.3353  138.1378  161.7595 C.ar    1  UNL1        0.2029
     25 N         139.1474  137.9745  160.5089 N.ar    1  UNL1       -0.2046
     26 C         139.4346  139.1635  159.6407 C.ar    1  UNL1        0.1715
     27 C         138.9098  140.5156  160.0230 C.ar    1  UNL1        0.1098
     28 C         139.3513  141.4968  158.9777 C.ar    1  UNL1        0.1283
     29 N         140.1489  140.7509  157.9494 N.ar    1  UNL1       -0.1619
     30 N         140.2004  139.3089  158.3591 N.ar    1  UNL1       -0.2105
     31 C         140.8957  138.2059  157.6175 C.ar    1  UNL1        0.1045
     32 C         140.2357  137.5673  156.4315 C.ar    1  UNL1        0.0760
     33 CL        138.8804  138.0318  155.9870 Cl      1  UNL1       -0.0807
     34 C         140.9310  136.4643  155.6899 C.ar    1  UNL1        0.0130
     35 C         142.2862  135.9998  156.1343 C.ar    1  UNL1        0.0017
     36 C         142.9462  136.6384  157.3203 C.ar    1  UNL1        0.0119
     37 C         142.2509  137.7414  158.0619 C.ar    1  UNL1        0.0870
     38 C         142.9109  138.3799  159.2479 C.1     1  UNL1        0.1020
     39 N         143.5710  139.0184  160.4340 N.1     1  UNL1       -0.1908
@<TRIPOS>BOND
     1    12    13    3
     2    13     6    1
     3     6     7   ar
     4     7     8   ar
     5     8     9   ar
     6     9     2    1
     7     2     3   am
     8     3     4    2
     9     3     1    1
    10     1    14    1
    11    14    15    1
    12    15    16    1
    13    16    17    1
    14    17    18    1
    15    17    19    1
    16     1    21    1
    17    21    22    1
    18    22    23   ar
    19    23    24   ar
    20    24    25   ar
    21    25    26   ar
    22    26    27   ar
    23    27    28   ar
    24    28    29   ar
    25    29    30   ar
    26    30    31    1
    27    31    32   ar
    28    32    33    1
    29    32    34   ar
    30    34    35   ar
    31    35    36   ar
    32    36    37   ar
    33    37    38    1
    34    38    39    3
    35     9    10   ar
    36    10    11   ar
    37    11     6   ar
    38    19    15    1
    39    27    22   ar
    40    37    31   ar
    41    30    26   ar
    42     2     5    1
    43    18    20    1
@<TRIPOS>MOLECULE
*****
 39 43 0 0 0
SMALL
GASTEIGER

@<TRIPOS>ATOM
      1 C         137.6248  140.8193  161.9009 C.3     1  UNL1        0.2588
      2 N         138.2959  141.0411  159.4008 N.am    1  UNL1       -0.2664
      3 C         138.0213  141.6732  160.7331 C.2     1  UNL1        0.2689
      4 O         138.1432  143.1591  160.8976 O.2     1  UNL1       -0.2708
      5 H         138.2159  140.0658  159.2928 H       1  UNL1        0.1564
      6 C         139.4853  143.6025  155.8973 C.ar    1  UNL1        0.0877
      7 C         140.5340  143.0759  156.8317 C.ar    1  UNL1        0.0147
      8 C         140.1375  142.2221  157.9995 C.ar    1  UNL1        0.0352
      9 C         138.6924  141.8949  158.2330 C.ar    1  UNL1        0.1343
     10 N         137.6437  142.4214  157.2987 N.ar    1  UNL1       -0.2283
     11 C         138.0402  143.2753  156.1308 C.ar    1  UNL1        0.1105
     12 N         140.2784  145.3101  153.5617 N.1     1  UNL1       -0.1908
     13 C         139.8818  144.4563  154.7295 C.1     1  UNL1        0.1020
     14 C         137.8240  139.3337  161.8456 C.3     1  UNL1        0.1261
     15 N         139.2110  138.7624  161.8467 N.3     1  UNL1       -0.2650
     16 C         140.4399  138.9593  161.0094 C.3     1  UNL1        0.1033
     17 C         141.1724  137.9544  161.8483 C.3     1  UNL1        0.1423
     18 O         142.5593  137.3831  161.8493 O.3     1  UNL1       -0.3816
     19 C         139.9435  137.7575  162.6855 C.3     1  UNL1        0.1033
     20 H         143.0723  137.7781  161.1270 H       1  UNL1        0.2105
     21 O         137.0291  141.4512  163.1240 O.3     1  UNL1       -0.4529
     22 C         137.9064  142.1952  164.0867 C.ar    1  UNL1        0.2312
     23 N         137.9572  143.6939  164.0508 N.ar    1  UNL1       -0.1892
     24 C         138.8344  144.4378  165.0135 C.ar    1  UNL1        0.2029
     25 N         139.6609  143.6830  166.0122 N.ar    1  UNL1       -0.2046
     26 C         139.6101  142.1844  166.0481 C.ar    1  UNL1        0.1715
     27 C         138.7328  141.4404  165.0854 C.ar    1  UNL1        0.1098
     28 C         138.8876  139.9731  165.3559 C.ar    1  UNL1        0.1283
     29 N         139.8606  139.8103  166.4859 N.ar    1  UNL1       -0.1619
     30 N         140.3071  141.1769  166.9137 N.ar    1  UNL1       -0.2105
     31 C         141.2798  141.4824  168.0138 C.ar    1  UNL1        0.1045
     32 C         142.6282  142.0520  167.6861 C.ar    1  UNL1        0.0760
     33 CL        143.0039  142.3161  166.2581 Cl      1  UNL1       -0.0807
     34 C         143.6009  142.3575  168.7863 C.ar    1  UNL1        0.0130
     35 C         143.2253  142.0935  170.2143 C.ar    1  UNL1        0.0017
     36 C         141.8769  141.5239  170.5420 C.ar    1  UNL1        0.0119
     37 C         140.9042  141.2184  169.4419 C.ar    1  UNL1        0.0870
     38 C         139.5558  140.6488  169.7697 C.1     1  UNL1        0.1020
     39 N         138.2075  140.0792  170.0975 N.1     1  UNL1       -0.1908
@<TRIPOS>BOND
     1    12    13    3
     2    13     6    1
     3     6     7   ar
     4     7     8   ar
     5     8     9   ar
     6     9     2    1
     7     2     3   am
     8     3     4    2
     9     3     1    1
    10     1    14    1
    11    14    15    1
    12    15    16    1
    13    16    17    1
    14    17    18    1
    15    17    19    1
    16     1    21    1
    17    21    22    1
    18    22    23   ar
    19    23    24   ar
    20    24    25   ar
    21    25    26   ar
    22    26    27   ar
    23    27    28   ar
    24    28    29   ar
    25    29    30   ar
    26    30    31    1
    27    31    32   ar
    28    32    33    1
    29    32    34   ar
    30    34    35   ar
    31    35    36   ar
    32    36    37   ar
    33    37    38    1
    34    38    39    3
    35     9    10   ar
    36    10    11   ar
    37    11     6   ar
    38    19    15    1
    39    27    22   ar
    40    37    31   ar
    41    30    26   ar
    42     2     5    1
    43    18    20    1
@<TRIPOS>MOLECULE
*****
 39 43 0 0 0
SMALL
GASTEIGER

@<TRIPOS>ATOM
      1 C         143.4557  139.2990  163.1023 C.3     1  UNL1        0.2588
      2 N         142.3136  140.7950  164.8934 N.am    1  UNL1       -0.2664
      3 C         143.0990  139.5685  164.5342 C.2     1  UNL1        0.2689
      4 O         143.5277  138.6116  165.6068 O.2     1  UNL1       -0.2708
      5 H         142.0322  141.4230  164.1894 H       1  UNL1        0.1564
      6 C         141.2435  141.6035  169.1889 C.ar    1  UNL1        0.0877
      7 C         142.4639  142.2358  168.5881 C.ar    1  UNL1        0.0147
      8 C         142.8206  141.9663  167.1563 C.ar    1  UNL1        0.0352
      9 C         141.9569  141.0645  166.3252 C.ar    1  UNL1        0.1343
     10 N         140.7365  140.4322  166.9259 N.ar    1  UNL1       -0.2283
     11 C         140.3798  140.7017  168.3577 C.ar    1  UNL1        0.1105
     12 N         140.5301  142.1426  172.0525 N.1     1  UNL1       -0.1908
     13 C         140.8868  141.8731  170.6207 C.1     1  UNL1        0.1020
     14 C         144.4704  140.1580  162.4077 C.3     1  UNL1        0.1261
     15 N         144.3508  141.6523  162.4612 N.3     1  UNL1       -0.2650
     16 C         144.9025  142.7295  163.3474 C.3     1  UNL1        0.1033
     17 C         144.1816  143.7654  162.5369 C.3     1  UNL1        0.1423
     18 O         144.0620  145.2597  162.5904 O.3     1  UNL1       -0.3816
     19 C         143.6299  142.6883  161.6508 C.3     1  UNL1        0.1033
     20 H         144.5849  145.5995  163.3334 H       1  UNL1        0.2105
     21 O         142.7976  138.1705  162.3651 O.3     1  UNL1       -0.4529
     22 C         141.4526  138.3715  161.7320 C.ar    1  UNL1        0.2312
     23 N         140.2248  137.8094  162.3851 N.ar    1  UNL1       -0.1892
     24 C         138.8799  138.0104  161.7520 C.ar    1  UNL1        0.2029
     25 N         138.7629  138.7735  160.4659 N.ar    1  UNL1       -0.2046
     26 C         139.9907  139.3355  159.8129 C.ar    1  UNL1        0.1715
     27 C         141.3356  139.1346  160.4460 C.ar    1  UNL1        0.1098
     28 C         142.3612  139.8001  159.5768 C.ar    1  UNL1        0.1283
     29 N         141.6501  140.4124  158.4066 N.ar    1  UNL1       -0.1619
     30 N         140.1850  140.1253  158.5525 N.ar    1  UNL1       -0.2105
     31 C         139.1041  140.5528  157.6045 C.ar    1  UNL1        0.1045
     32 C         138.8257  139.7457  156.3712 C.ar    1  UNL1        0.0760
     33 CL        139.6282  138.5109  156.0859 Cl      1  UNL1       -0.0807
     34 C         137.7447  140.1732  155.4232 C.ar    1  UNL1        0.0130
     35 C         136.9422  141.4080  155.7084 C.ar    1  UNL1        0.0017
     36 C         137.2207  142.2151  156.9416 C.ar    1  UNL1        0.0119
     37 C         138.3016  141.7876  157.8897 C.ar    1  UNL1        0.0870
     38 C         138.5800  142.5948  159.1229 C.1     1  UNL1        0.1020
     39 N         138.8583  143.4020  160.3562 N.1     1  UNL1       -0.1908
@<TRIPOS>BOND
     1    12    13    3
     2    13     6    1
     3     6     7   ar
     4     7     8   ar
     5     8     9   ar
     6     9     2    1
     7     2     3   am
     8     3     4    2
     9     3     1    1
    10     1    14    1
    11    14    15    1
    12    15    16    1
    13    16    17    1
    14    17    18    1
    15    17    19    1
    16     1    21    1
    17    21    22    1
    18    22    23   ar
    19    23    24   ar
    20    24    25   ar
    21    25    26   ar
    22    26    27   ar
    23    27    28   ar
    24    28    29   ar
    25    29    30   ar
    26    30    31    1
    27    31    32   ar
    28    32    33    1
    29    32    34   ar
    30    34    35   ar
    31    35    36   ar
    32    36    37   ar
    33    37    38    1
    34    38    39    3
    35     9    10   ar
    36    10    11   ar
    37    11     6   ar
    38    19    15    1
    39    27    22   ar
    40    37    31   ar
    41    30    26   ar
    42     2     5    1
    43    18    20    1
