@<TRIPOS>MOLECULE
*****
 33 37 0 0 0
SMALL
GASTEIGER

@<TRIPOS>ATOM
      1 N         138.4375  143.3279  162.3015 N.3     1  UNL1       -0.2724
      2 C         137.5296  142.5600  163.2159 C.3     1  UNL1        0.0722
      3 C         137.2737  141.1028  162.9685 C.3     1  UNL1        0.0211
      4 C         137.9257  140.4136  161.8067 C.3     1  UNL1        0.0466
      5 C         138.8335  141.1815  160.8923 C.3     1  UNL1        0.0211
      6 C         139.0895  142.6387  161.1397 C.3     1  UNL1        0.0722
      7 C         138.6934  144.7850  162.5490 C.3     1  UNL1        0.0768
      8 C         139.4675  145.2156  163.7595 C.3     1  UNL1        0.0437
      9 C         143.4866  143.3870  164.6277 C.ar    1  UNL1        0.0072
     10 C         143.3999  144.7027  163.9125 C.ar    1  UNL1       -0.0022
     11 C         142.0602  145.3122  163.6231 C.ar    1  UNL1       -0.0045
     12 C         140.8072  144.6061  164.0489 C.ar    1  UNL1       -0.0208
     13 C         140.8939  143.2904  164.7641 C.ar    1  UNL1       -0.0045
     14 C         142.2335  142.6809  165.0535 C.ar    1  UNL1       -0.0022
     15 C         144.8262  142.7775  164.9171 C.3     1  UNL1        0.1687
     16 C         144.9478  141.5659  162.6221 C.3     1  UNL1        0.1746
     17 O         145.6361  142.1832  163.8033 O.3     1  UNL1       -0.3463
     18 C         137.6698  138.9565  161.5592 C.3     1  UNL1        0.2071
     19 O         138.1916  137.9296  162.5201 O.3     1  UNL1       -0.4602
     20 C         139.1692  138.3280  163.5858 C.ar    1  UNL1        0.2262
     21 N         138.6745  138.7519  164.9369 N.ar    1  UNL1       -0.2116
     22 C         139.6521  139.1503  166.0026 C.ar    1  UNL1        0.0844
     23 C         139.1573  139.5742  167.3537 C.ar    1  UNL1        0.0192
     24 C         140.1349  139.9725  168.4193 C.ar    1  UNL1        0.0015
     25 C         141.6073  139.9470  168.1338 C.ar    1  UNL1        0.0001
     26 C         142.1020  139.5232  166.7827 C.ar    1  UNL1        0.0015
     27 C         141.1244  139.1248  165.7171 C.ar    1  UNL1        0.0194
     28 C         141.6192  138.7009  164.3659 C.ar    1  UNL1        0.0246
     29 C         143.0014  138.5772  163.7966 C.ar    1  UNL1        0.0762
     30 N         142.8781  138.1024  162.3791 N.ar    1  UNL1       -0.3228
     31 C         144.0138  137.8430  161.4342 C.3     1  UNL1        0.1305
     32 C         141.4196  137.9326  162.0724 C.ar    1  UNL1        0.0806
     33 C         140.6416  138.3025  163.3003 C.ar    1  UNL1        0.0718
@<TRIPOS>BOND
     1    16    17    1
     2    17    15    1
     3    15     9    1
     4     9    10   ar
     5    10    11   ar
     6    11    12   ar
     7    12     8    1
     8     8     7    1
     9     7     1    1
    10     1     2    1
    11     2     3    1
    12     3     4    1
    13     4    18    1
    14    18    19    1
    15    19    20    1
    16    20    21   ar
    17    21    22   ar
    18    22    23   ar
    19    23    24   ar
    20    24    25   ar
    21    25    26   ar
    22    26    27   ar
    23    27    28   ar
    24    28    29   ar
    25    29    30   ar
    26    30    31    1
    27    30    32   ar
    28    32    33   ar
    29     4     5    1
    30     5     6    1
    31    12    13   ar
    32    13    14   ar
    33    14     9   ar
    34     6     1    1
    35    33    20   ar
    36    27    22   ar
    37    33    28   ar
@<TRIPOS>MOLECULE
*****
 33 37 0 0 0
SMALL
GASTEIGER

@<TRIPOS>ATOM
      1 N         139.9896  144.6136  162.5716 N.3     1  UNL1       -0.2724
      2 C         140.5660  143.6876  161.5419 C.3     1  UNL1        0.0722
      3 C         142.0495  143.4787  161.4675 C.3     1  UNL1        0.0211
      4 C         142.9567  144.1958  162.4228 C.3     1  UNL1        0.0466
      5 C         142.3804  145.1218  163.4526 C.3     1  UNL1        0.0211
      6 C         140.8968  145.3307  163.5270 C.3     1  UNL1        0.0722
      7 C         138.5061  144.8225  162.6460 C.3     1  UNL1        0.0768
      8 C         137.7016  144.1192  163.6986 C.3     1  UNL1        0.0437
      9 C         138.5970  139.8298  164.7235 C.ar    1  UNL1        0.0072
     10 C         137.6814  140.1523  163.5799 C.ar    1  UNL1       -0.0022
     11 C         137.3830  141.5821  163.2383 C.ar    1  UNL1       -0.0045
     12 C         138.0001  142.6894  164.0403 C.ar    1  UNL1       -0.0208
     13 C         138.9156  142.3669  165.1838 C.ar    1  UNL1       -0.0045
     14 C         139.2141  140.9372  165.5255 C.ar    1  UNL1       -0.0022
     15 C         138.8954  138.4001  165.0651 C.3     1  UNL1        0.1687
     16 C         139.8773  137.6502  162.7796 C.3     1  UNL1        0.1746
     17 O         139.9220  137.6398  164.2790 O.3     1  UNL1       -0.3463
     18 C         144.4402  143.9870  162.3485 C.3     1  UNL1        0.2071
     19 O         145.1509  143.2566  163.4491 O.3     1  UNL1       -0.4602
     20 C         144.4005  142.2845  164.3107 C.ar    1  UNL1        0.2262
     21 N         143.9522  142.6900  165.6835 N.ar    1  UNL1       -0.2116
     22 C         143.2019  141.7179  166.5450 C.ar    1  UNL1        0.0844
     23 C         142.7535  142.1233  167.9178 C.ar    1  UNL1        0.0192
     24 C         142.0033  141.1513  168.7793 C.ar    1  UNL1        0.0015
     25 C         141.7014  139.7738  168.2680 C.ar    1  UNL1        0.0001
     26 C         142.1497  139.3684  166.8952 C.ar    1  UNL1        0.0015
     27 C         142.9000  140.3404  166.0337 C.ar    1  UNL1        0.0194
     28 C         143.3484  139.9350  164.6609 C.ar    1  UNL1        0.0246
     29 C         143.1969  138.6557  163.8926 C.ar    1  UNL1        0.0762
     30 N         143.8536  138.8371  162.5562 N.ar    1  UNL1       -0.3228
     31 C         143.9382  137.8077  161.4684 C.3     1  UNL1        0.1305
     32 C         144.4109  140.2285  162.4986 C.ar    1  UNL1        0.0806
     33 C         144.0986  140.9071  163.7994 C.ar    1  UNL1        0.0718
@<TRIPOS>BOND
     1    16    17    1
     2    17    15    1
     3    15     9    1
     4     9    10   ar
     5    10    11   ar
     6    11    12   ar
     7    12     8    1
     8     8     7    1
     9     7     1    1
    10     1     2    1
    11     2     3    1
    12     3     4    1
    13     4    18    1
    14    18    19    1
    15    19    20    1
    16    20    21   ar
    17    21    22   ar
    18    22    23   ar
    19    23    24   ar
    20    24    25   ar
    21    25    26   ar
    22    26    27   ar
    23    27    28   ar
    24    28    29   ar
    25    29    30   ar
    26    30    31    1
    27    30    32   ar
    28    32    33   ar
    29     4     5    1
    30     5     6    1
    31    12    13   ar
    32    13    14   ar
    33    14     9   ar
    34     6     1    1
    35    33    20   ar
    36    27    22   ar
    37    33    28   ar
@<TRIPOS>MOLECULE
*****
 33 37 0 0 0
SMALL
GASTEIGER

@<TRIPOS>ATOM
      1 N         141.2442  137.8503  162.0326 N.3     1  UNL1       -0.2724
      2 C         139.7560  137.9372  161.8657 C.3     1  UNL1        0.0722
      3 C         138.8576  137.7856  163.0572 C.3     1  UNL1        0.0211
      4 C         139.4473  137.5471  164.4157 C.3     1  UNL1        0.0466
      5 C         140.9354  137.4601  164.5826 C.3     1  UNL1        0.0211
      6 C         141.8339  137.6117  163.3910 C.3     1  UNL1        0.0722
      7 C         142.1426  138.0019  160.8410 C.3     1  UNL1        0.0768
      8 C         142.7274  139.3425  160.5085 C.3     1  UNL1        0.0437
      9 C         143.9456  142.1475  163.8097 C.ar    1  UNL1        0.0072
     10 C         142.5265  142.1322  163.3241 C.ar    1  UNL1       -0.0022
     11 C         142.1204  141.1971  162.2237 C.ar    1  UNL1       -0.0045
     12 C         143.1335  140.2775  161.6089 C.ar    1  UNL1       -0.0208
     13 C         144.5526  140.2929  162.0945 C.ar    1  UNL1       -0.0045
     14 C         144.9587  141.2279  163.1949 C.ar    1  UNL1       -0.0022
     15 C         144.3517  143.0825  164.9101 C.3     1  UNL1        0.1687
     16 C         143.7667  145.1168  163.4036 C.3     1  UNL1        0.1746
     17 O         144.2072  144.5642  164.7268 O.3     1  UNL1       -0.3463
     18 C         138.5489  137.3955  165.6072 C.3     1  UNL1        0.2071
     19 O         137.9643  138.6101  166.2651 O.3     1  UNL1       -0.4602
     20 C         138.4792  139.9745  165.9136 C.ar    1  UNL1        0.2262
     21 N         137.8129  140.7719  164.8319 N.ar    1  UNL1       -0.2116
     22 C         138.3278  142.1362  164.4804 C.ar    1  UNL1        0.0844
     23 C         137.6615  142.9336  163.3987 C.ar    1  UNL1        0.0192
     24 C         138.1764  144.2979  163.0473 C.ar    1  UNL1        0.0015
     25 C         139.3576  144.8648  163.7776 C.ar    1  UNL1        0.0001
     26 C         140.0239  144.0674  164.8593 C.ar    1  UNL1        0.0015
     27 C         139.5090  142.7032  165.2107 C.ar    1  UNL1        0.0194
     28 C         140.1753  141.9057  166.2925 C.ar    1  UNL1        0.0246
     29 C         141.3488  142.2008  167.1789 C.ar    1  UNL1        0.0762
     30 N         141.5592  141.0188  168.0782 N.ar    1  UNL1       -0.3228
     31 C         142.6259  140.8858  169.1244 C.3     1  UNL1        0.1305
     32 C         140.5157  139.9933  167.7476 C.ar    1  UNL1        0.0806
     33 C         139.6604  140.5414  166.6440 C.ar    1  UNL1        0.0718
@<TRIPOS>BOND
     1    16    17    1
     2    17    15    1
     3    15     9    1
     4     9    10   ar
     5    10    11   ar
     6    11    12   ar
     7    12     8    1
     8     8     7    1
     9     7     1    1
    10     1     2    1
    11     2     3    1
    12     3     4    1
    13     4    18    1
    14    18    19    1
    15    19    20    1
    16    20    21   ar
    17    21    22   ar
    18    22    23   ar
    19    23    24   ar
    20    24    25   ar
    21    25    26   ar
    22    26    27   ar
    23    27    28   ar
    24    28    29   ar
    25    29    30   ar
    26    30    31    1
    27    30    32   ar
    28    32    33   ar
    29     4     5    1
    30     5     6    1
    31    12    13   ar
    32    13    14   ar
    33    14     9   ar
    34     6     1    1
    35    33    20   ar
    36    27    22   ar
    37    33    28   ar
@<TRIPOS>MOLECULE
*****
 33 37 0 0 0
SMALL
GASTEIGER

@<TRIPOS>ATOM
      1 N         138.0786  142.9978  163.4122 N.3     1  UNL1       -0.2724
      2 C         137.8128  141.7533  164.2064 C.3     1  UNL1        0.0722
      3 C         137.7042  140.4287  163.5110 C.3     1  UNL1        0.0211
      4 C         137.8615  140.3485  162.0214 C.3     1  UNL1        0.0466
      5 C         138.1273  141.5929  161.2272 C.3     1  UNL1        0.0211
      6 C         138.2359  142.9175  161.9226 C.3     1  UNL1        0.0722
      7 C         138.1872  144.3224  164.1076 C.3     1  UNL1        0.0768
      8 C         139.3875  144.6294  164.9531 C.3     1  UNL1        0.0437
      9 C         143.4766  143.3051  163.6204 C.ar    1  UNL1        0.0072
     10 C         142.6239  142.3887  164.4469 C.ar    1  UNL1       -0.0022
     11 C         141.2608  142.8302  164.8911 C.ar    1  UNL1       -0.0045
     12 C         140.7506  144.1879  164.5088 C.ar    1  UNL1       -0.0208
     13 C         141.6033  145.1043  163.6824 C.ar    1  UNL1       -0.0045
     14 C         142.9663  144.6629  163.2381 C.ar    1  UNL1       -0.0022
     15 C         144.8396  142.8637  163.1762 C.3     1  UNL1        0.1687
     16 C         144.5190  142.6300  160.6086 C.3     1  UNL1        0.1746
     17 O         144.9960  142.0674  161.9147 O.3     1  UNL1       -0.3463
     18 C         137.7529  139.0239  161.3260 C.3     1  UNL1        0.2071
     19 O         138.6895  137.9088  161.6860 O.3     1  UNL1       -0.4602
     20 C         140.0964  138.2169  162.1053 C.ar    1  UNL1        0.2262
     21 N         140.4651  138.2065  163.5592 N.ar    1  UNL1       -0.2116
     22 C         141.8720  138.5146  163.9784 C.ar    1  UNL1        0.0844
     23 C         142.2407  138.5042  165.4324 C.ar    1  UNL1        0.0192
     24 C         143.6475  138.8123  165.8516 C.ar    1  UNL1        0.0015
     25 C         144.6857  139.1308  164.8168 C.ar    1  UNL1        0.0001
     26 C         144.3171  139.1413  163.3629 C.ar    1  UNL1        0.0015
     27 C         142.9102  138.8332  162.9437 C.ar    1  UNL1        0.0194
     28 C         142.5415  138.8436  161.4897 C.ar    1  UNL1        0.0246
     29 C         143.3439  139.1194  160.2528 C.ar    1  UNL1        0.0762
     30 N         142.4329  138.9818  159.0691 N.ar    1  UNL1       -0.3228
     31 C         142.8195  139.1717  157.6322 C.3     1  UNL1        0.1305
     32 C         141.0675  138.6209  159.5745 C.ar    1  UNL1        0.0806
     33 C         141.1346  138.5355  161.0705 C.ar    1  UNL1        0.0718
@<TRIPOS>BOND
     1    16    17    1
     2    17    15    1
     3    15     9    1
     4     9    10   ar
     5    10    11   ar
     6    11    12   ar
     7    12     8    1
     8     8     7    1
     9     7     1    1
    10     1     2    1
    11     2     3    1
    12     3     4    1
    13     4    18    1
    14    18    19    1
    15    19    20    1
    16    20    21   ar
    17    21    22   ar
    18    22    23   ar
    19    23    24   ar
    20    24    25   ar
    21    25    26   ar
    22    26    27   ar
    23    27    28   ar
    24    28    29   ar
    25    29    30   ar
    26    30    31    1
    27    30    32   ar
    28    32    33   ar
    29     4     5    1
    30     5     6    1
    31    12    13   ar
    32    13    14   ar
    33    14     9   ar
    34     6     1    1
    35    33    20   ar
    36    27    22   ar
    37    33    28   ar
@<TRIPOS>MOLECULE
*****
 33 37 0 0 0
SMALL
GASTEIGER

@<TRIPOS>ATOM
      1 N         137.9473  140.0782  161.9018 N.3     1  UNL1       -0.2724
      2 C         138.2349  141.1130  160.8547 C.3     1  UNL1        0.0722
      3 C         138.2219  142.5689  161.2155 C.3     1  UNL1        0.0211
      4 C         137.9213  142.9900  162.6234 C.3     1  UNL1        0.0466
      5 C         137.6337  141.9552  163.6706 C.3     1  UNL1        0.0211
      6 C         137.6467  140.4993  163.3098 C.3     1  UNL1        0.0722
      7 C         137.9603  138.6223  161.5410 C.3     1  UNL1        0.0768
      8 C         139.2656  137.9000  161.3850 C.3     1  UNL1        0.0437
      9 C         142.5603  138.5336  164.3840 C.ar    1  UNL1        0.0072
     10 C         142.6497  139.1662  163.0269 C.ar    1  UNL1       -0.0022
     11 C         141.5514  138.9549  162.0272 C.ar    1  UNL1       -0.0045
     12 C         140.3639  138.1112  162.3847 C.ar    1  UNL1       -0.0208
     13 C         140.2746  137.4786  163.7418 C.ar    1  UNL1       -0.0045
     14 C         141.3727  137.6898  164.7415 C.ar    1  UNL1       -0.0022
     15 C         143.6585  138.7447  165.3837 C.3     1  UNL1        0.1687
     16 C         142.9119  139.0556  167.8527 C.3     1  UNL1        0.1746
     17 O         143.5189  138.2053  166.7763 O.3     1  UNL1       -0.3463
     18 C         137.9083  144.4459  162.9842 C.3     1  UNL1        0.2071
     19 O         139.0604  145.0423  163.7372 O.3     1  UNL1       -0.4602
     20 C         140.3599  144.2990  163.8317 C.ar    1  UNL1        0.2262
     21 N         141.3032  144.2863  162.6656 N.ar    1  UNL1       -0.2116
     22 C         142.6027  143.5431  162.7601 C.ar    1  UNL1        0.0844
     23 C         143.5460  143.5304  161.5939 C.ar    1  UNL1        0.0192
     24 C         144.8455  142.7871  161.6885 C.ar    1  UNL1        0.0015
     25 C         145.2016  142.0565  162.9492 C.ar    1  UNL1        0.0001
     26 C         144.2583  142.0692  164.1153 C.ar    1  UNL1        0.0015
     27 C         142.9588  142.8124  164.0208 C.ar    1  UNL1        0.0194
     28 C         142.0154  142.8251  165.1870 C.ar    1  UNL1        0.0246
     29 C         142.0946  142.2012  166.5487 C.ar    1  UNL1        0.0762
     30 N         140.8440  142.5588  167.2958 N.ar    1  UNL1       -0.3228
     31 C         140.5050  142.1443  168.6970 C.3     1  UNL1        0.1305
     32 C         139.9920  143.4038  166.3958 C.ar    1  UNL1        0.0806
     33 C         140.7160  143.5684  165.0924 C.ar    1  UNL1        0.0718
@<TRIPOS>BOND
     1    16    17    1
     2    17    15    1
     3    15     9    1
     4     9    10   ar
     5    10    11   ar
     6    11    12   ar
     7    12     8    1
     8     8     7    1
     9     7     1    1
    10     1     2    1
    11     2     3    1
    12     3     4    1
    13     4    18    1
    14    18    19    1
    15    19    20    1
    16    20    21   ar
    17    21    22   ar
    18    22    23   ar
    19    23    24   ar
    20    24    25   ar
    21    25    26   ar
    22    26    27   ar
    23    27    28   ar
    24    28    29   ar
    25    29    30   ar
    26    30    31    1
    27    30    32   ar
    28    32    33   ar
    29     4     5    1
    30     5     6    1
    31    12    13   ar
    32    13    14   ar
    33    14     9   ar
    34     6     1    1
    35    33    20   ar
    36    27    22   ar
    37    33    28   ar
@<TRIPOS>MOLECULE
*****
 33 37 0 0 0
SMALL
GASTEIGER

@<TRIPOS>ATOM
      1 N         143.2235  143.7810  161.6523 N.3     1  UNL1       -0.2724
      2 C         142.1272  143.6486  160.6370 C.3     1  UNL1        0.0722
      3 C         140.7708  144.2238  160.9184 C.3     1  UNL1        0.0211
      4 C         140.5106  144.9316  162.2151 C.3     1  UNL1        0.0466
      5 C         141.6068  145.0641  163.2304 C.3     1  UNL1        0.0211
      6 C         142.9633  144.4888  162.9490 C.3     1  UNL1        0.0722
      7 C         144.5798  143.2058  161.3709 C.3     1  UNL1        0.0768
      8 C         144.7654  141.7186  161.3082 C.3     1  UNL1        0.0437
      9 C         143.4185  139.1364  164.7387 C.ar    1  UNL1        0.0072
     10 C         144.7969  139.7280  164.7414 C.ar    1  UNL1       -0.0022
     11 C         145.2459  140.5888  163.5978 C.ar    1  UNL1       -0.0045
     12 C         144.3165  140.8579  162.4517 C.ar    1  UNL1       -0.0208
     13 C         142.9381  140.2663  162.4490 C.ar    1  UNL1       -0.0045
     14 C         142.4891  139.4055  163.5925 C.ar    1  UNL1       -0.0022
     15 C         142.9695  138.2757  165.8821 C.3     1  UNL1        0.1687
     16 C         142.6660  139.4366  168.1865 C.3     1  UNL1        0.1746
     17 O         143.4631  138.5558  167.2706 O.3     1  UNL1       -0.3463
     18 C         139.1542  145.5069  162.4965 C.3     1  UNL1        0.2071
     19 O         138.1183  144.6778  163.1962 O.3     1  UNL1       -0.4602
     20 C         138.3455  143.2091  163.4000 C.ar    1  UNL1        0.2262
     21 N         137.8976  142.2290  162.3566 N.ar    1  UNL1       -0.2116
     22 C         138.1248  140.7603  162.5604 C.ar    1  UNL1        0.0844
     23 C         137.6769  139.7802  161.5170 C.ar    1  UNL1        0.0192
     24 C         137.9041  138.3117  161.7208 C.ar    1  UNL1        0.0015
     25 C         138.5791  137.8232  162.9681 C.ar    1  UNL1        0.0001
     26 C         139.0269  138.8033  164.0116 C.ar    1  UNL1        0.0015
     27 C         138.7998  140.2718  163.8077 C.ar    1  UNL1        0.0194
     28 C         139.2476  141.2520  164.8512 C.ar    1  UNL1        0.0246
     29 C         139.9344  141.0681  166.1719 C.ar    1  UNL1        0.0762
     30 N         140.1317  142.4231  166.7844 N.ar    1  UNL1       -0.3228
     31 C         140.7800  142.7069  168.1070 C.3     1  UNL1        0.1305
     32 C         139.5669  143.4444  165.8421 C.ar    1  UNL1        0.0806
     33 C         139.0205  142.7206  164.6473 C.ar    1  UNL1        0.0718
@<TRIPOS>BOND
     1    16    17    1
     2    17    15    1
     3    15     9    1
     4     9    10   ar
     5    10    11   ar
     6    11    12   ar
     7    12     8    1
     8     8     7    1
     9     7     1    1
    10     1     2    1
    11     2     3    1
    12     3     4    1
    13     4    18    1
    14    18    19    1
    15    19    20    1
    16    20    21   ar
    17    21    22   ar
    18    22    23   ar
    19    23    24   ar
    20    24    25   ar
    21    25    26   ar
    22    26    27   ar
    23    27    28   ar
    24    28    29   ar
    25    29    30   ar
    26    30    31    1
    27    30    32   ar
    28    32    33   ar
    29     4     5    1
    30     5     6    1
    31    12    13   ar
    32    13    14   ar
    33    14     9   ar
    34     6     1    1
    35    33    20   ar
    36    27    22   ar
    37    33    28   ar
@<TRIPOS>MOLECULE
*****
 33 37 0 0 0
SMALL
GASTEIGER

@<TRIPOS>ATOM
      1 N         144.8589  140.9140  162.8229 N.3     1  UNL1       -0.2724
      2 C         144.4629  141.3022  161.4292 C.3     1  UNL1        0.0722
      3 C         143.8144  140.2955  160.5258 C.3     1  UNL1        0.0211
      4 C         143.5620  138.9006  161.0162 C.3     1  UNL1        0.0466
      5 C         143.9580  138.5123  162.4098 C.3     1  UNL1        0.0211
      6 C         144.6065  139.5190  163.3133 C.3     1  UNL1        0.0722
      7 C         145.5074  141.9206  163.7263 C.3     1  UNL1        0.0768
      8 C         144.7176  142.5532  164.8335 C.3     1  UNL1        0.0437
      9 C         140.7059  144.3983  163.9660 C.ar    1  UNL1        0.0072
     10 C         140.7923  142.9730  164.4257 C.ar    1  UNL1       -0.0022
     11 C         142.1296  142.3580  164.7148 C.ar    1  UNL1       -0.0045
     12 C         143.3803  143.1682  164.5443 C.ar    1  UNL1       -0.0208
     13 C         143.2939  144.5935  164.0847 C.ar    1  UNL1       -0.0045
     14 C         141.9567  145.2085  163.7955 C.ar    1  UNL1       -0.0022
     15 C         139.3687  145.0133  163.6768 C.3     1  UNL1        0.1687
     16 C         139.5149  146.3566  161.4578 C.3     1  UNL1        0.1746
     17 O         138.9334  145.2287  162.2577 O.3     1  UNL1       -0.3463
     18 C         142.9135  137.8939  160.1128 C.3     1  UNL1        0.2071
     19 O         141.4400  137.6331  160.2159 O.3     1  UNL1       -0.4602
     20 C         140.6351  138.2938  161.2956 C.ar    1  UNL1        0.2262
     21 N         140.3839  137.5769  162.5890 N.ar    1  UNL1       -0.2116
     22 C         139.5790  138.2376  163.6687 C.ar    1  UNL1        0.0844
     23 C         139.3279  137.5207  164.9621 C.ar    1  UNL1        0.0192
     24 C         138.5230  138.1813  166.0417 C.ar    1  UNL1        0.0015
     25 C         137.9693  139.5589  165.8280 C.ar    1  UNL1        0.0001
     26 C         138.2205  140.2758  164.5346 C.ar    1  UNL1        0.0015
     27 C         139.0253  139.6151  163.4550 C.ar    1  UNL1        0.0194
     28 C         139.2765  140.3321  162.1615 C.ar    1  UNL1        0.0246
     29 C         138.8617  141.6863  161.6676 C.ar    1  UNL1        0.0762
     30 N         139.4102  141.8626  160.2826 N.ar    1  UNL1       -0.3228
     31 C         139.2355  143.0719  159.4125 C.3     1  UNL1        0.1305
     32 C         140.1640  140.6173  159.9206 C.ar    1  UNL1        0.0806
     33 C         140.0814  139.6714  161.0818 C.ar    1  UNL1        0.0718
@<TRIPOS>BOND
     1    16    17    1
     2    17    15    1
     3    15     9    1
     4     9    10   ar
     5    10    11   ar
     6    11    12   ar
     7    12     8    1
     8     8     7    1
     9     7     1    1
    10     1     2    1
    11     2     3    1
    12     3     4    1
    13     4    18    1
    14    18    19    1
    15    19    20    1
    16    20    21   ar
    17    21    22   ar
    18    22    23   ar
    19    23    24   ar
    20    24    25   ar
    21    25    26   ar
    22    26    27   ar
    23    27    28   ar
    24    28    29   ar
    25    29    30   ar
    26    30    31    1
    27    30    32   ar
    28    32    33   ar
    29     4     5    1
    30     5     6    1
    31    12    13   ar
    32    13    14   ar
    33    14     9   ar
    34     6     1    1
    35    33    20   ar
    36    27    22   ar
    37    33    28   ar
@<TRIPOS>MOLECULE
*****
 33 37 0 0 0
SMALL
GASTEIGER

@<TRIPOS>ATOM
      1 N         139.9442  138.1008  164.1093 N.3     1  UNL1       -0.2724
      2 C         139.8672  137.9452  162.6193 C.3     1  UNL1        0.0722
      3 C         141.1253  137.9027  161.8036 C.3     1  UNL1        0.0211
      4 C         142.4604  138.0158  162.4779 C.3     1  UNL1        0.0466
      5 C         142.5375  138.1713  163.9678 C.3     1  UNL1        0.0211
      6 C         141.2793  138.2138  164.7835 C.3     1  UNL1        0.0722
      7 C         138.6861  138.1433  164.9249 C.3     1  UNL1        0.0768
      8 C         138.3929  139.3332  165.7898 C.3     1  UNL1        0.0437
      9 C         139.0960  143.4889  164.2128 C.ar    1  UNL1        0.0072
     10 C         137.9780  142.6559  163.6594 C.ar    1  UNL1       -0.0022
     11 C         137.7437  141.2706  164.1850 C.ar    1  UNL1       -0.0045
     12 C         138.6272  140.7185  165.2641 C.ar    1  UNL1       -0.0208
     13 C         139.7452  141.5515  165.8175 C.ar    1  UNL1       -0.0045
     14 C         139.9796  142.9367  165.2919 C.ar    1  UNL1       -0.0022
     15 C         139.3304  144.8741  163.6872 C.3     1  UNL1        0.1687
     16 C         139.6585  146.3542  161.5773 C.3     1  UNL1        0.1746
     17 O         138.9827  145.2058  162.2663 O.3     1  UNL1       -0.3463
     18 C         143.7185  137.9732  161.6622 C.3     1  UNL1        0.2071
     19 O         144.1425  139.1771  160.8743 O.3     1  UNL1       -0.4602
     20 C         143.8626  140.5540  161.3996 C.ar    1  UNL1        0.2262
     21 N         144.4178  140.9775  162.7271 N.ar    1  UNL1       -0.2116
     22 C         144.1379  142.3544  163.2524 C.ar    1  UNL1        0.0844
     23 C         144.6931  142.7779  164.5799 C.ar    1  UNL1        0.0192
     24 C         144.4132  144.1547  165.1052 C.ar    1  UNL1        0.0015
     25 C         143.5781  145.1081  164.3029 C.ar    1  UNL1        0.0001
     26 C         143.0229  144.6846  162.9754 C.ar    1  UNL1        0.0015
     27 C         143.3028  143.3077  162.4501 C.ar    1  UNL1        0.0194
     28 C         142.7476  142.8842  161.1226 C.ar    1  UNL1        0.0246
     29 C         141.8976  143.6007  160.1155 C.ar    1  UNL1        0.0762
     30 N         141.6523  142.6666  158.9677 N.ar    1  UNL1       -0.3228
     31 C         140.8495  142.9725  157.7380 C.3     1  UNL1        0.1305
     32 C         142.3506  141.3729  159.2655 C.ar    1  UNL1        0.0806
     33 C         143.0275  141.5074  160.5973 C.ar    1  UNL1        0.0718
@<TRIPOS>BOND
     1    16    17    1
     2    17    15    1
     3    15     9    1
     4     9    10   ar
     5    10    11   ar
     6    11    12   ar
     7    12     8    1
     8     8     7    1
     9     7     1    1
    10     1     2    1
    11     2     3    1
    12     3     4    1
    13     4    18    1
    14    18    19    1
    15    19    20    1
    16    20    21   ar
    17    21    22   ar
    18    22    23   ar
    19    23    24   ar
    20    24    25   ar
    21    25    26   ar
    22    26    27   ar
    23    27    28   ar
    24    28    29   ar
    25    29    30   ar
    26    30    31    1
    27    30    32   ar
    28    32    33   ar
    29     4     5    1
    30     5     6    1
    31    12    13   ar
    32    13    14   ar
    33    14     9   ar
    34     6     1    1
    35    33    20   ar
    36    27    22   ar
    37    33    28   ar
@<TRIPOS>MOLECULE
*****
 33 37 0 0 0
SMALL
GASTEIGER

@<TRIPOS>ATOM
      1 N         142.4922  138.3225  162.6313 N.3     1  UNL1       -0.2724
      2 C         141.1688  138.0467  161.9813 C.3     1  UNL1        0.0722
      3 C         139.9742  137.7126  162.8246 C.3     1  UNL1        0.0211
      4 C         140.1029  137.6541  164.3179 C.3     1  UNL1        0.0466
      5 C         141.4263  137.9299  164.9679 C.3     1  UNL1        0.0211
      6 C         142.6210  138.2641  164.1247 C.3     1  UNL1        0.0722
      7 C         143.6869  138.6567  161.7881 C.3     1  UNL1        0.0768
      8 C         144.3152  140.0154  161.8827 C.3     1  UNL1        0.0437
      9 C         141.8557  143.6939  161.0642 C.ar    1  UNL1        0.0072
     10 C         141.6738  142.9406  162.3485 C.ar    1  UNL1       -0.0022
     11 C         142.4937  141.7144  162.6214 C.ar    1  UNL1       -0.0045
     12 C         143.4954  141.2416  161.6099 C.ar    1  UNL1       -0.0208
     13 C         143.6772  141.9949  160.3256 C.ar    1  UNL1       -0.0045
     14 C         142.8574  143.2210  160.0527 C.ar    1  UNL1       -0.0022
     15 C         141.0359  144.9200  160.7914 C.3     1  UNL1        0.1687
     16 C         140.2243  145.4297  158.3765 C.3     1  UNL1        0.1746
     17 O         139.9583  144.8849  159.7485 O.3     1  UNL1       -0.3463
     18 C         138.9083  137.3199  165.1612 C.3     1  UNL1        0.2071
     19 O         138.2439  138.3886  165.9776 O.3     1  UNL1       -0.4602
     20 C         138.5806  139.8312  165.7413 C.ar    1  UNL1        0.2262
     21 N         137.9602  140.5674  164.5910 N.ar    1  UNL1       -0.2116
     22 C         138.2969  142.0099  164.3547 C.ar    1  UNL1        0.0844
     23 C         137.6765  142.7461  163.2044 C.ar    1  UNL1        0.0192
     24 C         138.0132  144.1886  162.9681 C.ar    1  UNL1        0.0015
     25 C         138.9702  144.8949  163.8821 C.ar    1  UNL1        0.0001
     26 C         139.5906  144.1587  165.0323 C.ar    1  UNL1        0.0015
     27 C         139.2539  142.7162  165.2686 C.ar    1  UNL1        0.0194
     28 C         139.8743  141.9799  166.4189 C.ar    1  UNL1        0.0246
     29 C         140.8444  142.4093  167.4793 C.ar    1  UNL1        0.0762
     30 N         141.1074  141.2321  168.3710 N.ar    1  UNL1       -0.3228
     31 C         142.0181  141.2148  169.5628 C.3     1  UNL1        0.1305
     32 C         140.2997  140.0752  167.8617 C.ar    1  UNL1        0.0806
     33 C         139.5376  140.5374  166.6552 C.ar    1  UNL1        0.0718
@<TRIPOS>BOND
     1    16    17    1
     2    17    15    1
     3    15     9    1
     4     9    10   ar
     5    10    11   ar
     6    11    12   ar
     7    12     8    1
     8     8     7    1
     9     7     1    1
    10     1     2    1
    11     2     3    1
    12     3     4    1
    13     4    18    1
    14    18    19    1
    15    19    20    1
    16    20    21   ar
    17    21    22   ar
    18    22    23   ar
    19    23    24   ar
    20    24    25   ar
    21    25    26   ar
    22    26    27   ar
    23    27    28   ar
    24    28    29   ar
    25    29    30   ar
    26    30    31    1
    27    30    32   ar
    28    32    33   ar
    29     4     5    1
    30     5     6    1
    31    12    13   ar
    32    13    14   ar
    33    14     9   ar
    34     6     1    1
    35    33    20   ar
    36    27    22   ar
    37    33    28   ar
