@<TRIPOS>MOLECULE
*****
 42 46 0 0 0
SMALL
GASTEIGER

@<TRIPOS>ATOM
      1 C         141.1112  139.6561  162.1972 C.ar    1  UNL1        0.1847
      2 N         140.2343  140.4762  161.2981 N.ar    1  UNL1       -0.2086
      3 C         140.2959  140.2842  159.8116 C.ar    1  UNL1        0.1513
      4 C         141.2344  139.2721  159.2244 C.ar    1  UNL1        0.1141
      5 C         141.5125  138.8644  157.8079 C.ar    1  UNL1        0.0206
      6 C         142.5614  137.7924  157.8317 C.ar    1  UNL1        0.0146
      7 C         142.9314  137.5375  159.2628 C.ar    1  UNL1        0.0976
      8 N         142.1113  138.4520  160.1236 N.ar    1  UNL1       -0.2244
      9 N         142.0497  138.6440  161.6099 N.ar    1  UNL1       -0.1454
     10 C         140.9264  140.2318  166.6564 C.ar    1  UNL1        0.1366
     11 C         140.0145  139.2454  165.9891 C.ar    1  UNL1        0.0385
     12 C         140.0761  139.0535  164.5027 C.ar    1  UNL1        0.0787
     13 C         141.0496  139.8480  163.6836 C.ar    1  UNL1        0.0607
     14 C         141.9615  140.8344  164.3509 C.ar    1  UNL1        0.1033
     15 N         141.9000  141.0264  165.8373 N.ar    1  UNL1       -0.2288
     16 C         141.9220  139.8228  169.0210 C.2     1  UNL1        0.4066
     17 O         143.0407  139.0301  168.4129 O.2     1  UNL1       -0.2261
     18 N         140.8648  140.4237  168.1428 N.am    1  UNL1       -0.2350
     19 H         140.1305  140.9440  168.5420 H       1  UNL1        0.1596
     20 C         141.7607  141.3969  171.0817 C.3     1  UNL1        0.2574
     21 O         141.8603  140.0147  170.5075 O.3     1  UNL1       -0.4303
     22 C         139.1641  138.0670  163.8354 C.3     1  UNL1        0.4188
     23 F         138.2522  137.0804  163.1682 F       1  UNL1       -0.1659
     24 F         138.1402  139.1455  163.6403 F       1  UNL1       -0.1659
     25 F         140.1881  136.9884  164.0306 F       1  UNL1       -0.1659
     26 N         139.4189  141.1044  158.9126 N.pl3   1  UNL1       -0.2869
     27 C         138.1736  140.5051  158.3295 C.3     1  UNL1        0.1243
     28 C         137.2965  141.3252  157.4304 C.3     1  UNL1        0.1636
     29 O         137.6650  142.7445  157.1144 O.3     1  UNL1       -0.3501
     30 C         138.9103  143.3437  157.6975 C.3     1  UNL1        0.1636
     31 C         139.7873  142.5236  158.5966 C.3     1  UNL1        0.1243
     32 C         143.1388  137.0972  156.6345 C.3     1  UNL1        0.1008
     33 N         142.8015  135.6604  156.3663 N.3     1  UNL1       -0.2664
     34 C         143.5269  134.5705  157.0983 C.3     1  UNL1        0.0917
     35 C         143.1895  133.1337  156.8301 C.3     1  UNL1        0.1128
     36 N         142.1267  132.7868  155.8300 N.3     1  UNL1       -0.1565
     37 C         141.4013  133.8769  155.0981 C.3     1  UNL1        0.1128
     38 C         141.7386  135.3136  155.3662 C.3     1  UNL1        0.0917
     39 S         141.7894  131.3501  155.5619 S.O2    1  UNL1        0.0457
     40 C         141.4521  129.9133  155.2938 C.3     1  UNL1        0.1960
     41 O         140.6859  131.7810  154.6417 O.2     1  UNL1       -0.1572
     42 O         142.8929  130.9193  156.4821 O.2     1  UNL1       -0.1572
@<TRIPOS>BOND
     1    20    21    1
     2    21    16    1
     3    16    17    2
     4    16    18   am
     5    18    10    1
     6    10    11   ar
     7    11    12   ar
     8    12    22    1
     9    22    23    1
    10    22    24    1
    11    22    25    1
    12    12    13   ar
    13    13     1    1
    14     1     2   ar
    15     2     3   ar
    16     3    26    1
    17    26    27    1
    18    27    28    1
    19    28    29    1
    20    29    30    1
    21    30    31    1
    22     3     4   ar
    23     4     5   ar
    24     5     6   ar
    25     6    32    1
    26    32    33    1
    27    33    34    1
    28    34    35    1
    29    35    36    1
    30    36    39    1
    31    39    40    1
    32    39    41    2
    33    39    42    2
    34    36    37    1
    35    37    38    1
    36     6     7   ar
    37     7     8   ar
    38     8     9   ar
    39    13    14   ar
    40    14    15   ar
    41    15    10   ar
    42     9     1   ar
    43    31    26    1
    44     8     4   ar
    45    38    33    1
    46    18    19    1
@<TRIPOS>MOLECULE
*****
 42 46 0 0 0
SMALL
GASTEIGER

@<TRIPOS>ATOM
      1 C         141.1110  140.1713  162.2292 C.ar    1  UNL1        0.1847
      2 N         140.8492  141.4389  161.4714 N.ar    1  UNL1       -0.2086
      3 C         141.1611  141.5149  160.0061 C.ar    1  UNL1        0.1513
      4 C         141.7348  140.3231  159.2987 C.ar    1  UNL1        0.1141
      5 C         142.1402  140.1021  157.8716 C.ar    1  UNL1        0.0206
      6 C         142.6525  138.6978  157.7474 C.ar    1  UNL1        0.0146
      7 C         142.5638  138.0509  159.0978 C.ar    1  UNL1        0.0976
      8 N         141.9966  139.0553  160.0566 N.ar    1  UNL1       -0.2244
      9 N         141.6847  138.9794  161.5218 N.ar    1  UNL1       -0.1454
     10 C         140.1752  139.9433  166.6250 C.ar    1  UNL1        0.1366
     11 C         139.1576  139.4970  165.6174 C.ar    1  UNL1        0.0385
     12 C         139.4695  139.5730  164.1521 C.ar    1  UNL1        0.0787
     13 C         140.7991  140.0953  163.6945 C.ar    1  UNL1        0.0607
     14 C         141.8166  140.5416  164.7020 C.ar    1  UNL1        0.1033
     15 N         141.5047  140.4657  166.1673 N.ar    1  UNL1       -0.2288
     16 C         139.9512  141.0998  168.9406 C.2     1  UNL1        0.4066
     17 O         140.3510  142.4082  168.3258 O.2     1  UNL1       -0.2261
     18 N         139.8632  139.8673  168.0902 N.am    1  UNL1       -0.2350
     19 H         139.6008  139.0085  168.4937 H       1  UNL1        0.1596
     20 C         140.7535  141.0026  171.4098 C.3     1  UNL1        0.2574
     21 O         139.6392  141.0238  170.4059 O.3     1  UNL1       -0.4303
     22 C         138.4518  139.1266  163.1446 C.3     1  UNL1        0.4188
     23 F         137.4341  138.6803  162.1370 F       1  UNL1       -0.1659
     24 F         139.0152  137.7373  163.1910 F       1  UNL1       -0.1659
     25 F         137.8885  140.5160  163.0982 F       1  UNL1       -0.1659
     26 N         140.8992  142.7827  159.2483 N.pl3   1  UNL1       -0.2869
     27 C         139.7994  142.8339  158.2296 C.3     1  UNL1        0.1243
     28 C         139.5375  144.1016  157.4718 C.3     1  UNL1        0.1636
     29 O         140.3754  145.3180  157.7327 O.3     1  UNL1       -0.3501
     30 C         141.4753  145.2668  158.7514 C.3     1  UNL1        0.1636
     31 C         141.7372  143.9991  159.5092 C.3     1  UNL1        0.1243
     32 C         143.1639  138.0535  156.4930 C.3     1  UNL1        0.1008
     33 N         142.7889  136.6374  156.1707 N.3     1  UNL1       -0.2664
     34 C         141.4916  136.3444  155.4769 C.3     1  UNL1        0.0917
     35 C         141.1166  134.9282  155.1546 C.3     1  UNL1        0.1128
     36 N         142.0389  133.8050  155.5259 N.3     1  UNL1       -0.1565
     37 C         143.3362  134.0981  156.2197 C.3     1  UNL1        0.1128
     38 C         143.7112  135.5142  156.5420 C.3     1  UNL1        0.0917
     39 S         141.6639  132.3889  155.2036 S.O2    1  UNL1        0.0457
     40 C         141.2889  130.9728  154.8812 C.3     1  UNL1        0.1960
     41 O         141.1004  132.8377  153.8878 O.2     1  UNL1       -0.1572
     42 O         142.2274  131.9402  156.5193 O.2     1  UNL1       -0.1572
@<TRIPOS>BOND
     1    20    21    1
     2    21    16    1
     3    16    17    2
     4    16    18   am
     5    18    10    1
     6    10    11   ar
     7    11    12   ar
     8    12    22    1
     9    22    23    1
    10    22    24    1
    11    22    25    1
    12    12    13   ar
    13    13     1    1
    14     1     2   ar
    15     2     3   ar
    16     3    26    1
    17    26    27    1
    18    27    28    1
    19    28    29    1
    20    29    30    1
    21    30    31    1
    22     3     4   ar
    23     4     5   ar
    24     5     6   ar
    25     6    32    1
    26    32    33    1
    27    33    34    1
    28    34    35    1
    29    35    36    1
    30    36    39    1
    31    39    40    1
    32    39    41    2
    33    39    42    2
    34    36    37    1
    35    37    38    1
    36     6     7   ar
    37     7     8   ar
    38     8     9   ar
    39    13    14   ar
    40    14    15   ar
    41    15    10   ar
    42     9     1   ar
    43    31    26    1
    44     8     4   ar
    45    38    33    1
    46    18    19    1
@<TRIPOS>MOLECULE
*****
 42 46 0 0 0
SMALL
GASTEIGER

@<TRIPOS>ATOM
      1 C         142.5378  137.3139  156.7089 C.ar    1  UNL1        0.1847
      2 N         143.7018  138.1330  156.2360 N.ar    1  UNL1       -0.2086
      3 C         143.6402  139.6305  156.2992 C.ar    1  UNL1        0.1513
      4 C         142.4145  140.3087  156.8354 C.ar    1  UNL1        0.1141
      5 C         142.0673  141.7564  157.0183 C.ar    1  UNL1        0.0206
      6 C         140.6886  141.8319  157.6044 C.ar    1  UNL1        0.0146
      7 C         140.1836  140.4309  157.7836 C.ar    1  UNL1        0.0976
      8 N         141.2503  139.4894  157.3083 N.ar    1  UNL1       -0.2244
      9 N         141.3120  137.9921  157.2451 N.ar    1  UNL1       -0.1454
     10 C         142.7225  132.8217  156.5191 C.ar    1  UNL1        0.1366
     11 C         142.0150  133.5894  155.4421 C.ar    1  UNL1        0.0385
     12 C         141.9534  135.0868  155.5053 C.ar    1  UNL1        0.0787
     13 C         142.5994  135.8164  156.6457 C.ar    1  UNL1        0.0607
     14 C         143.3068  135.0488  157.7227 C.ar    1  UNL1        0.1033
     15 N         143.3684  133.5513  157.6595 N.ar    1  UNL1       -0.2288
     16 C         144.0908  130.6380  156.1889 C.2     1  UNL1        0.4066
     17 O         145.3360  131.4490  155.9852 O.2     1  UNL1       -0.2261
     18 N         142.7840  131.3243  156.4559 N.am    1  UNL1       -0.2350
     19 H         141.9668  130.7919  156.5896 H       1  UNL1        0.1596
     20 C         143.1312  128.3809  155.3317 C.3     1  UNL1        0.2574
     21 O         144.1523  129.1405  156.1256 O.3     1  UNL1       -0.4303
     22 C         141.2459  135.8545  154.4282 C.3     1  UNL1        0.4188
     23 F         140.5385  136.6221  153.3511 F       1  UNL1       -0.1659
     24 F         139.9826  135.8241  155.2363 F       1  UNL1       -0.1659
     25 F         142.5093  135.8848  153.6201 F       1  UNL1       -0.1659
     26 N         144.8045  140.4497  155.8262 N.pl3   1  UNL1       -0.2869
     27 C         145.1879  140.4407  154.3761 C.3     1  UNL1        0.1243
     28 C         146.3521  141.2598  153.9031 C.3     1  UNL1        0.1636
     29 O         147.1327  142.0879  154.8802 O.3     1  UNL1       -0.3501
     30 C         146.7493  142.0968  156.3303 C.3     1  UNL1        0.1636
     31 C         145.5851  141.2777  156.8034 C.3     1  UNL1        0.1243
     32 C         139.9453  143.0880  157.9504 C.3     1  UNL1        0.1008
     33 N         139.7029  143.4444  159.3872 N.3     1  UNL1       -0.2664
     34 C         140.3751  144.6441  159.9861 C.3     1  UNL1        0.0917
     35 C         140.1327  145.0004  161.4229 C.3     1  UNL1        0.1128
     36 N         139.2180  144.1571  162.2607 N.3     1  UNL1       -0.1565
     37 C         138.5457  142.9573  161.6618 C.3     1  UNL1        0.1128
     38 C         138.7881  142.6009  160.2250 C.3     1  UNL1        0.0917
     39 S         138.9756  144.5134  163.6975 S.O2    1  UNL1        0.0457
     40 C         138.7332  144.8698  165.1342 C.3     1  UNL1        0.1960
     41 O         137.5051  144.2881  163.5052 O.2     1  UNL1       -0.1572
     42 O         140.4461  144.7387  163.8897 O.2     1  UNL1       -0.1572
@<TRIPOS>BOND
     1    20    21    1
     2    21    16    1
     3    16    17    2
     4    16    18   am
     5    18    10    1
     6    10    11   ar
     7    11    12   ar
     8    12    22    1
     9    22    23    1
    10    22    24    1
    11    22    25    1
    12    12    13   ar
    13    13     1    1
    14     1     2   ar
    15     2     3   ar
    16     3    26    1
    17    26    27    1
    18    27    28    1
    19    28    29    1
    20    29    30    1
    21    30    31    1
    22     3     4   ar
    23     4     5   ar
    24     5     6   ar
    25     6    32    1
    26    32    33    1
    27    33    34    1
    28    34    35    1
    29    35    36    1
    30    36    39    1
    31    39    40    1
    32    39    41    2
    33    39    42    2
    34    36    37    1
    35    37    38    1
    36     6     7   ar
    37     7     8   ar
    38     8     9   ar
    39    13    14   ar
    40    14    15   ar
    41    15    10   ar
    42     9     1   ar
    43    31    26    1
    44     8     4   ar
    45    38    33    1
    46    18    19    1
@<TRIPOS>MOLECULE
*****
 42 46 0 0 0
SMALL
GASTEIGER

@<TRIPOS>ATOM
      1 C         142.7073  138.9408  161.5600 C.ar    1  UNL1        0.1847
      2 N         142.3964  140.2368  160.8718 N.ar    1  UNL1       -0.2086
      3 C         142.2576  140.2788  159.3788 C.ar    1  UNL1        0.1513
      4 C         142.4297  139.0247  158.5740 C.ar    1  UNL1        0.1141
      5 C         142.3519  138.7597  157.0997 C.ar    1  UNL1        0.0206
      6 C         142.6147  137.2999  156.8767 C.ar    1  UNL1        0.0146
      7 C         142.8550  136.6627  158.2132 C.ar    1  UNL1        0.0976
      8 N         142.7406  137.7287  159.2622 N.ar    1  UNL1       -0.2244
      9 N         142.8794  137.6867  160.7552 N.ar    1  UNL1       -0.1454
     10 C         143.1236  138.8147  166.0389 C.ar    1  UNL1        0.1366
     11 C         141.8492  138.3608  165.3910 C.ar    1  UNL1        0.0385
     12 C         141.7104  138.4029  163.8981 C.ar    1  UNL1        0.0787
     13 C         142.8461  138.8988  163.0530 C.ar    1  UNL1        0.0607
     14 C         144.1205  139.3526  163.7008 C.ar    1  UNL1        0.1033
     15 N         144.2594  139.3106  165.1938 N.ar    1  UNL1       -0.2288
     16 C         142.8072  139.9371  168.3605 C.2     1  UNL1        0.4066
     17 O         142.2132  141.1436  167.6962 O.2     1  UNL1       -0.2261
     18 N         143.2624  138.7726  167.5319 N.am    1  UNL1       -0.2350
     19 H         143.6523  137.9807  167.9679 H       1  UNL1        0.1596
     20 C         141.8916  140.5140  170.7225 C.3     1  UNL1        0.2574
     21 O         142.9460  139.8950  169.8535 O.3     1  UNL1       -0.4303
     22 C         140.4359  137.9490  163.2503 C.3     1  UNL1        0.4188
     23 F         139.1613  137.4952  162.6025 F       1  UNL1       -0.1659
     24 F         140.9564  136.5429  163.2112 F       1  UNL1       -0.1659
     25 F         139.9153  139.3552  163.2894 F       1  UNL1       -0.1659
     26 N         141.9466  141.5749  158.6906 N.pl3   1  UNL1       -0.2869
     27 C         143.0289  142.5928  158.4841 C.3     1  UNL1        0.1243
     28 C         142.7180  143.8889  157.7960 C.3     1  UNL1        0.1636
     29 O         141.3249  144.1671  157.3145 O.3     1  UNL1       -0.3501
     30 C         140.2427  143.1492  157.5210 C.3     1  UNL1        0.1636
     31 C         140.5535  141.8531  158.2092 C.3     1  UNL1        0.1243
     32 C         142.6339  136.6000  155.5501 C.3     1  UNL1        0.1008
     33 N         142.5698  135.1026  155.4911 N.3     1  UNL1       -0.2664
     34 C         141.2703  134.4190  155.1849 C.3     1  UNL1        0.0917
     35 C         141.2061  132.9215  155.1259 C.3     1  UNL1        0.1128
     36 N         142.4416  132.1076  155.3731 N.3     1  UNL1       -0.1565
     37 C         143.7412  132.7913  155.6793 C.3     1  UNL1        0.1128
     38 C         143.8054  134.2887  155.7383 C.3     1  UNL1        0.0917
     39 S         142.3775  130.6101  155.3140 S.O2    1  UNL1        0.0457
     40 C         142.3133  129.1127  155.2550 C.3     1  UNL1        0.1960
     41 O         140.8916  130.6815  155.1210 O.2     1  UNL1       -0.1572
     42 O         143.8633  130.5389  155.5071 O.2     1  UNL1       -0.1572
@<TRIPOS>BOND
     1    20    21    1
     2    21    16    1
     3    16    17    2
     4    16    18   am
     5    18    10    1
     6    10    11   ar
     7    11    12   ar
     8    12    22    1
     9    22    23    1
    10    22    24    1
    11    22    25    1
    12    12    13   ar
    13    13     1    1
    14     1     2   ar
    15     2     3   ar
    16     3    26    1
    17    26    27    1
    18    27    28    1
    19    28    29    1
    20    29    30    1
    21    30    31    1
    22     3     4   ar
    23     4     5   ar
    24     5     6   ar
    25     6    32    1
    26    32    33    1
    27    33    34    1
    28    34    35    1
    29    35    36    1
    30    36    39    1
    31    39    40    1
    32    39    41    2
    33    39    42    2
    34    36    37    1
    35    37    38    1
    36     6     7   ar
    37     7     8   ar
    38     8     9   ar
    39    13    14   ar
    40    14    15   ar
    41    15    10   ar
    42     9     1   ar
    43    31    26    1
    44     8     4   ar
    45    38    33    1
    46    18    19    1
@<TRIPOS>MOLECULE
*****
 42 46 0 0 0
SMALL
GASTEIGER

@<TRIPOS>ATOM
      1 C         139.6804  142.2766  158.4771 C.ar    1  UNL1        0.1847
      2 N         140.2307  141.0732  157.7709 N.ar    1  UNL1       -0.2086
      3 C         140.2795  139.7485  158.4732 C.ar    1  UNL1        0.1513
      4 C         139.7779  139.6275  159.8816 C.ar    1  UNL1        0.1141
      5 C         139.6994  138.4618  160.8223 C.ar    1  UNL1        0.0206
      6 C         139.1005  138.9449  162.1099 C.ar    1  UNL1        0.0146
      7 C         138.8089  140.4091  161.9650 C.ar    1  UNL1        0.0976
      8 N         139.2276  140.8310  160.5878 N.ar    1  UNL1       -0.2244
      9 N         139.1788  142.1555  159.8855 N.ar    1  UNL1       -0.1454
     10 C         139.5341  146.2504  156.3705 C.ar    1  UNL1        0.1366
     11 C         140.4040  146.0741  157.5797 C.ar    1  UNL1        0.0385
     12 C         140.4527  144.7495  158.2819 C.ar    1  UNL1        0.0787
     13 C         139.6316  143.6012  157.7748 C.ar    1  UNL1        0.0607
     14 C         138.7618  143.7775  156.5657 C.ar    1  UNL1        0.1033
     15 N         138.7130  145.1021  155.8634 N.ar    1  UNL1       -0.2288
     16 C         140.1233  147.7330  154.3199 C.2     1  UNL1        0.4066
     17 O         140.8099  146.5665  153.6738 O.2     1  UNL1       -0.2261
     18 N         139.4853  147.5750  155.6683 N.am    1  UNL1       -0.2350
     19 H         139.0346  148.3407  156.0924 H       1  UNL1        0.1596
     20 C         141.1807  149.4533  152.6851 C.3     1  UNL1        0.2574
     21 O         140.0745  149.0577  153.6178 O.3     1  UNL1       -0.4303
     22 C         141.3227  144.5733  159.4911 C.3     1  UNL1        0.4188
     23 F         142.1925  144.3971  160.7004 F       1  UNL1       -0.1659
     24 F         142.4231  144.0410  158.6219 F       1  UNL1       -0.1659
     25 F         140.2221  145.1056  160.3603 F       1  UNL1       -0.1659
     26 N         140.8299  138.5450  157.7669 N.pl3   1  UNL1       -0.2869
     27 C         142.2316  138.0886  158.0443 C.3     1  UNL1        0.1243
     28 C         142.7821  136.8851  157.3381 C.3     1  UNL1        0.1636
     29 O         141.9308  136.1382  156.3545 O.3     1  UNL1       -0.3501
     30 C         140.5292  136.5947  156.0771 C.3     1  UNL1        0.1636
     31 C         139.9787  137.7982  156.7833 C.3     1  UNL1        0.1243
     32 C         138.8390  138.1103  163.3286 C.3     1  UNL1        0.1008
     33 N         139.1585  138.6511  164.6907 N.3     1  UNL1       -0.2664
     34 C         138.1129  138.6407  165.7660 C.3     1  UNL1        0.0917
     35 C         138.4324  139.1816  167.1282 C.3     1  UNL1        0.1128
     36 N         139.7976  139.7329  167.4150 N.3     1  UNL1       -0.1565
     37 C         140.8433  139.7432  166.3395 C.3     1  UNL1        0.1128
     38 C         140.5238  139.2024  164.9774 C.3     1  UNL1        0.0917
     39 S         140.1171  140.2737  168.7771 S.O2    1  UNL1        0.0457
     40 C         140.4366  140.8145  170.1392 C.3     1  UNL1        0.1960
     41 O         138.8038  139.7604  169.2889 O.2     1  UNL1       -0.1572
     42 O         141.4304  140.7869  168.2653 O.2     1  UNL1       -0.1572
@<TRIPOS>BOND
     1    20    21    1
     2    21    16    1
     3    16    17    2
     4    16    18   am
     5    18    10    1
     6    10    11   ar
     7    11    12   ar
     8    12    22    1
     9    22    23    1
    10    22    24    1
    11    22    25    1
    12    12    13   ar
    13    13     1    1
    14     1     2   ar
    15     2     3   ar
    16     3    26    1
    17    26    27    1
    18    27    28    1
    19    28    29    1
    20    29    30    1
    21    30    31    1
    22     3     4   ar
    23     4     5   ar
    24     5     6   ar
    25     6    32    1
    26    32    33    1
    27    33    34    1
    28    34    35    1
    29    35    36    1
    30    36    39    1
    31    39    40    1
    32    39    41    2
    33    39    42    2
    34    36    37    1
    35    37    38    1
    36     6     7   ar
    37     7     8   ar
    38     8     9   ar
    39    13    14   ar
    40    14    15   ar
    41    15    10   ar
    42     9     1   ar
    43    31    26    1
    44     8     4   ar
    45    38    33    1
    46    18    19    1
@<TRIPOS>MOLECULE
*****
 42 46 0 0 0
SMALL
GASTEIGER

@<TRIPOS>ATOM
      1 C         141.1735  140.1390  162.2634 C.ar    1  UNL1        0.1847
      2 N         140.9193  141.4074  161.5044 N.ar    1  UNL1       -0.2086
      3 C         141.2057  141.4715  160.0333 C.ar    1  UNL1        0.1513
      4 C         141.7463  140.2670  159.3214 C.ar    1  UNL1        0.1141
      5 C         142.1219  140.0329  157.8882 C.ar    1  UNL1        0.0206
      6 C         142.6083  138.6196  157.7615 C.ar    1  UNL1        0.0146
      7 C         142.5333  137.9803  159.1164 C.ar    1  UNL1        0.0976
      8 N         142.0006  138.9985  160.0805 N.ar    1  UNL1       -0.2244
      9 N         141.7142  138.9345  161.5515 N.ar    1  UNL1       -0.1454
     10 C         140.3145  139.9467  166.6765 C.ar    1  UNL1        0.1366
     11 C         141.7310  140.0376  166.1914 C.ar    1  UNL1        0.0385
     12 C         142.0173  140.1017  164.7203 C.ar    1  UNL1        0.0787
     13 C         140.8871  140.0749  163.7344 C.ar    1  UNL1        0.0607
     14 C         139.4707  139.9840  164.2195 C.ar    1  UNL1        0.1033
     15 N         139.1843  139.9199  165.6906 N.ar    1  UNL1       -0.2288
     16 C         140.0561  141.1352  168.9723 C.2     1  UNL1        0.4066
     17 O         140.3704  142.4518  168.3261 O.2     1  UNL1       -0.2261
     18 N         140.0282  139.8826  168.1475 N.am    1  UNL1       -0.2350
     19 H         139.8219  139.0184  168.5716 H       1  UNL1        0.1596
     20 C         140.7635  141.6172  171.4253 C.3     1  UNL1        0.2574
     21 O         139.7698  141.0710  170.4433 O.3     1  UNL1       -0.4303
     22 C         143.4338  140.1925  164.2353 C.3     1  UNL1        0.4188
     23 F         144.8503  140.2833  163.7503 F       1  UNL1       -0.1659
     24 F         143.3384  141.6894  164.2369 F       1  UNL1       -0.1659
     25 F         143.5292  138.6956  164.2337 F       1  UNL1       -0.1659
     26 N         140.9514  142.7401  159.2743 N.pl3   1  UNL1       -0.2869
     27 C         141.7639  143.9661  159.5690 C.3     1  UNL1        0.1243
     28 C         141.5097  145.2347  158.8101 C.3     1  UNL1        0.1636
     29 O         140.4430  145.2773  157.7564 O.3     1  UNL1       -0.3501
     30 C         139.6304  144.0513  157.4617 C.3     1  UNL1        0.1636
     31 C         139.8847  142.7827  158.2206 C.3     1  UNL1        0.1243
     32 C         143.0858  137.9611  156.5012 C.3     1  UNL1        0.1008
     33 N         142.7614  136.5204  156.2383 N.3     1  UNL1       -0.2664
     34 C         143.6767  135.4422  156.7379 C.3     1  UNL1        0.0917
     35 C         143.3523  134.0015  156.4750 C.3     1  UNL1        0.1128
     36 N         142.1125  133.6390  155.7125 N.3     1  UNL1       -0.1565
     37 C         141.1971  134.7172  155.2129 C.3     1  UNL1        0.1128
     38 C         141.5215  136.1579  155.4758 C.3     1  UNL1        0.0917
     39 S         141.7881  132.1983  155.4497 S.O2    1  UNL1        0.0457
     40 C         141.4636  130.7575  155.1868 C.3     1  UNL1        0.1960
     41 O         142.3956  131.8209  156.7683 O.2     1  UNL1       -0.1572
     42 O         141.1805  132.5756  154.1312 O.2     1  UNL1       -0.1572
@<TRIPOS>BOND
     1    20    21    1
     2    21    16    1
     3    16    17    2
     4    16    18   am
     5    18    10    1
     6    10    11   ar
     7    11    12   ar
     8    12    22    1
     9    22    23    1
    10    22    24    1
    11    22    25    1
    12    12    13   ar
    13    13     1    1
    14     1     2   ar
    15     2     3   ar
    16     3    26    1
    17    26    27    1
    18    27    28    1
    19    28    29    1
    20    29    30    1
    21    30    31    1
    22     3     4   ar
    23     4     5   ar
    24     5     6   ar
    25     6    32    1
    26    32    33    1
    27    33    34    1
    28    34    35    1
    29    35    36    1
    30    36    39    1
    31    39    40    1
    32    39    41    2
    33    39    42    2
    34    36    37    1
    35    37    38    1
    36     6     7   ar
    37     7     8   ar
    38     8     9   ar
    39    13    14   ar
    40    14    15   ar
    41    15    10   ar
    42     9     1   ar
    43    31    26    1
    44     8     4   ar
    45    38    33    1
    46    18    19    1
@<TRIPOS>MOLECULE
*****
 42 46 0 0 0
SMALL
GASTEIGER

@<TRIPOS>ATOM
      1 C         142.2674  138.8307  157.5105 C.ar    1  UNL1        0.1847
      2 N         141.8662  140.2752  157.4637 N.ar    1  UNL1       -0.2086
      3 C         142.2562  141.1986  158.5797 C.ar    1  UNL1        0.1513
      4 C         143.0474  140.6773  159.7425 C.ar    1  UNL1        0.1141
      5 C         143.5720  141.3445  160.9793 C.ar    1  UNL1        0.0206
      6 C         144.2975  140.3122  161.7905 C.ar    1  UNL1        0.0146
      7 C         144.2212  139.0071  161.0551 C.ar    1  UNL1        0.0976
      8 N         143.4486  139.2327  159.7893 N.ar    1  UNL1       -0.2244
      9 N         143.0586  138.3094  158.6734 N.ar    1  UNL1       -0.1454
     10 C         141.0976  136.0607  154.1626 C.ar    1  UNL1        0.1366
     11 C         142.4245  136.7594  154.1290 C.ar    1  UNL1        0.0385
     12 C         142.8144  137.6827  155.2450 C.ar    1  UNL1        0.0787
     13 C         141.8774  137.9074  156.3945 C.ar    1  UNL1        0.0607
     14 C         140.5506  137.2087  156.4282 C.ar    1  UNL1        0.1033
     15 N         140.1606  136.2853  155.3122 N.ar    1  UNL1       -0.2288
     16 C         141.0801  133.6857  153.1095 C.2     1  UNL1        0.4066
     17 O         141.8424  133.1574  154.2883 O.2     1  UNL1       -0.2261
     18 N         140.7077  135.1374  153.0466 N.am    1  UNL1       -0.2350
     19 H         140.2073  135.4841  152.2729 H       1  UNL1        0.1596
     20 C         140.0700  131.4321  152.3028 C.3     1  UNL1        0.2574
     21 O         140.6901  132.7624  151.9935 O.3     1  UNL1       -0.4303
     22 C         144.1413  138.3814  155.2113 C.3     1  UNL1        0.4188
     23 F         145.4683  139.0800  155.1776 F       1  UNL1       -0.1659
     24 F         143.4653  139.6440  154.7654 F       1  UNL1       -0.1659
     25 F         144.8174  137.1188  155.6571 F       1  UNL1       -0.1659
     26 N         141.8549  142.6432  158.5327 N.pl3   1  UNL1       -0.2869
     27 C         142.6396  143.6128  157.6996 C.3     1  UNL1        0.1243
     28 C         142.2384  145.0574  157.6526 C.3     1  UNL1        0.1636
     29 O         141.0525  145.5323  158.4388 O.3     1  UNL1       -0.3501
     30 C         140.2678  144.5627  159.2719 C.3     1  UNL1        0.1636
     31 C         140.6690  143.1181  159.3189 C.3     1  UNL1        0.1243
     32 C         144.9795  140.5443  163.1062 C.3     1  UNL1        0.1008
     33 N         144.2096  140.4011  164.3856 N.3     1  UNL1       -0.2664
     34 C         143.9936  139.0423  164.9829 C.3     1  UNL1        0.0917
     35 C         143.2238  138.8991  166.2623 C.3     1  UNL1        0.1128
     36 N         142.6700  140.1148  166.9444 N.3     1  UNL1       -0.1565
     37 C         142.8860  141.4737  166.3471 C.3     1  UNL1        0.1128
     38 C         143.6558  141.6169  165.0677 C.3     1  UNL1        0.0917
     39 S         141.9001  139.9716  168.2238 S.O2    1  UNL1        0.0457
     40 C         141.1303  139.8284  169.5032 C.3     1  UNL1        0.1960
     41 O         142.9434  139.0286  168.7459 O.2     1  UNL1       -0.1572
     42 O         140.8570  140.9146  167.7017 O.2     1  UNL1       -0.1572
@<TRIPOS>BOND
     1    20    21    1
     2    21    16    1
     3    16    17    2
     4    16    18   am
     5    18    10    1
     6    10    11   ar
     7    11    12   ar
     8    12    22    1
     9    22    23    1
    10    22    24    1
    11    22    25    1
    12    12    13   ar
    13    13     1    1
    14     1     2   ar
    15     2     3   ar
    16     3    26    1
    17    26    27    1
    18    27    28    1
    19    28    29    1
    20    29    30    1
    21    30    31    1
    22     3     4   ar
    23     4     5   ar
    24     5     6   ar
    25     6    32    1
    26    32    33    1
    27    33    34    1
    28    34    35    1
    29    35    36    1
    30    36    39    1
    31    39    40    1
    32    39    41    2
    33    39    42    2
    34    36    37    1
    35    37    38    1
    36     6     7   ar
    37     7     8   ar
    38     8     9   ar
    39    13    14   ar
    40    14    15   ar
    41    15    10   ar
    42     9     1   ar
    43    31    26    1
    44     8     4   ar
    45    38    33    1
    46    18    19    1
@<TRIPOS>MOLECULE
*****
 42 46 0 0 0
SMALL
GASTEIGER

@<TRIPOS>ATOM
      1 C         142.6694  142.0097  160.7012 C.ar    1  UNL1        0.1847
      2 N         143.9098  141.8581  159.8717 N.ar    1  UNL1       -0.2086
      3 C         143.9147  142.3079  158.4406 C.ar    1  UNL1        0.1513
      4 C         142.6790  142.9092  157.8393 C.ar    1  UNL1        0.1141
      5 C         142.3865  143.4395  156.4670 C.ar    1  UNL1        0.0206
      6 C         140.9653  143.9188  156.4485 C.ar    1  UNL1        0.0146
      7 C         140.3794  143.6847  157.8094 C.ar    1  UNL1        0.0976
      8 N         141.4386  143.0607  158.6690 N.ar    1  UNL1       -0.2244
      9 N         141.4337  142.6110  160.0999 N.ar    1  UNL1       -0.1454
     10 C         142.6548  140.6605  164.9943 C.ar    1  UNL1        0.1366
     11 C         143.2026  142.0096  164.6339 C.ar    1  UNL1        0.0385
     12 C         143.2075  142.4593  163.2029 C.ar    1  UNL1        0.0787
     13 C         142.6645  141.5599  162.1323 C.ar    1  UNL1        0.0607
     14 C         142.1167  140.2109  162.4926 C.ar    1  UNL1        0.1033
     15 N         142.1118  139.7611  163.9236 N.ar    1  UNL1       -0.2288
     16 C         141.4523  140.4726  167.2896 C.2     1  UNL1        0.4066
     17 O         140.2596  141.1841  166.7230 O.2     1  UNL1       -0.2261
     18 N         142.6499  140.2108  166.4252 N.am    1  UNL1       -0.2350
     19 H         143.4328  139.7438  166.7971 H       1  UNL1        0.1596
     20 C         142.5638  140.4270  169.6375 C.3     1  UNL1        0.2574
     21 O         141.4475  140.0229  168.7206 O.3     1  UNL1       -0.4303
     22 C         143.7554  143.8084  162.8426 C.3     1  UNL1        0.4188
     23 F         144.3031  145.1575  162.4823 F       1  UNL1       -0.1659
     24 F         145.1091  143.2005  162.6244 F       1  UNL1       -0.1659
     25 F         142.4016  144.4164  163.0608 F       1  UNL1       -0.1659
     26 N         145.1552  142.1563  157.6110 N.pl3   1  UNL1       -0.2869
     27 C         145.1692  141.2075  156.4493 C.3     1  UNL1        0.1243
     28 C         146.4096  141.0559  155.6197 C.3     1  UNL1        0.1636
     29 O         147.6360  141.8531  155.9518 O.3     1  UNL1       -0.3501
     30 C         147.6221  142.8018  157.1136 C.3     1  UNL1        0.1636
     31 C         146.3816  142.9535  157.9432 C.3     1  UNL1        0.1243
     32 C         140.2547  144.5257  155.2752 C.3     1  UNL1        0.1008
     33 N         139.9537  145.9950  155.2586 N.3     1  UNL1       -0.2664
     34 C         139.2076  146.6207  156.3996 C.3     1  UNL1        0.0917
     35 C         138.9065  148.0901  156.3830 C.3     1  UNL1        0.1128
     36 N         139.3517  148.9339  155.2255 N.3     1  UNL1       -0.1565
     37 C         140.0978  148.3081  154.0845 C.3     1  UNL1        0.1128
     38 C         140.3988  146.8388  154.1010 C.3     1  UNL1        0.0917
     39 S         139.0506  150.4033  155.2089 S.O2    1  UNL1        0.0457
     40 C         138.7496  151.8726  155.1924 C.3     1  UNL1        0.1960
     41 O         140.2993  150.6501  154.4151 O.2     1  UNL1       -0.1572
     42 O         137.8021  150.1564  156.0027 O.2     1  UNL1       -0.1572
@<TRIPOS>BOND
     1    20    21    1
     2    21    16    1
     3    16    17    2
     4    16    18   am
     5    18    10    1
     6    10    11   ar
     7    11    12   ar
     8    12    22    1
     9    22    23    1
    10    22    24    1
    11    22    25    1
    12    12    13   ar
    13    13     1    1
    14     1     2   ar
    15     2     3   ar
    16     3    26    1
    17    26    27    1
    18    27    28    1
    19    28    29    1
    20    29    30    1
    21    30    31    1
    22     3     4   ar
    23     4     5   ar
    24     5     6   ar
    25     6    32    1
    26    32    33    1
    27    33    34    1
    28    34    35    1
    29    35    36    1
    30    36    39    1
    31    39    40    1
    32    39    41    2
    33    39    42    2
    34    36    37    1
    35    37    38    1
    36     6     7   ar
    37     7     8   ar
    38     8     9   ar
    39    13    14   ar
    40    14    15   ar
    41    15    10   ar
    42     9     1   ar
    43    31    26    1
    44     8     4   ar
    45    38    33    1
    46    18    19    1
@<TRIPOS>MOLECULE
*****
 42 46 0 0 0
SMALL
GASTEIGER

@<TRIPOS>ATOM
      1 C         142.3744  140.6390  157.4413 C.ar    1  UNL1        0.1847
      2 N         141.1654  141.1275  156.6998 N.ar    1  UNL1       -0.2086
      3 C         139.7948  140.8921  157.2622 C.ar    1  UNL1        0.1513
      4 C         139.6333  140.1682  158.5660 C.ar    1  UNL1        0.1141
      5 C         138.4185  139.7924  159.3615 C.ar    1  UNL1        0.0206
      6 C         138.8767  139.0717  160.5946 C.ar    1  UNL1        0.0146
      7 C         140.3747  139.0020  160.5612 C.ar    1  UNL1        0.0976
      8 N         140.8423  139.6797  159.3074 N.ar    1  UNL1       -0.2244
      9 N         142.2129  139.9151  158.7450 N.ar    1  UNL1       -0.1454
     10 C         146.4861  141.3452  155.7544 C.ar    1  UNL1        0.1366
     11 C         145.9947  142.1735  156.9044 C.ar    1  UNL1        0.0385
     12 C         144.6242  141.9381  157.4667 C.ar    1  UNL1        0.0787
     13 C         143.7450  140.8744  156.8789 C.ar    1  UNL1        0.0607
     14 C         144.2362  140.0461  155.7290 C.ar    1  UNL1        0.1033
     15 N         145.6069  140.2815  155.1666 N.ar    1  UNL1       -0.2288
     16 C         148.0535  142.5774  154.0886 C.2     1  UNL1        0.4066
     17 O         146.8799  143.3386  153.5473 O.2     1  UNL1       -0.2261
     18 N         147.8566  141.5807  155.1921 N.am    1  UNL1       -0.2350
     19 H         148.6269  141.0810  155.5474 H       1  UNL1        0.1596
     20 C         150.6080  142.1042  154.1149 C.3     1  UNL1        0.2574
     21 O         149.4241  142.8128  153.5263 O.3     1  UNL1       -0.4303
     22 C         144.1329  142.7665  158.6167 C.3     1  UNL1        0.4188
     23 F         143.6416  143.5948  159.7667 F       1  UNL1       -0.1659
     24 F         144.7637  141.8044  159.5792 F       1  UNL1       -0.1659
     25 F         143.5021  143.7285  157.6542 F       1  UNL1       -0.1659
     26 N         138.5859  141.3806  156.5207 N.pl3   1  UNL1       -0.2869
     27 C         138.1980  142.8279  156.5895 C.3     1  UNL1        0.1243
     28 C         136.9891  143.3165  155.8481 C.3     1  UNL1        0.1636
     29 O         136.1681  142.3577  155.0378 O.3     1  UNL1       -0.3501
     30 C         136.5559  140.9104  154.9689 C.3     1  UNL1        0.1636
     31 C         137.7649  140.4218  155.7104 C.3     1  UNL1        0.1243
     32 C         137.9922  138.5178  161.6721 C.3     1  UNL1        0.1008
     33 N         138.2739  138.8354  163.1107 N.3     1  UNL1       -0.2664
     34 C         138.8267  137.7767  164.0182 C.3     1  UNL1        0.0917
     35 C         139.1084  138.0942  165.4569 C.3     1  UNL1        0.1128
     36 N         138.8373  139.4705  165.9881 N.3     1  UNL1       -0.1565
     37 C         138.2845  140.5293  165.0806 C.3     1  UNL1        0.1128
     38 C         138.0027  140.2117  163.6419 C.3     1  UNL1        0.0917
     39 S         139.1190  139.7881  167.4268 S.O2    1  UNL1        0.0457
     40 C         139.4007  140.1056  168.8655 C.3     1  UNL1        0.1960
     41 O         140.1985  140.7405  167.0051 O.2     1  UNL1       -0.1572
     42 O         138.0395  138.8357  167.8484 O.2     1  UNL1       -0.1572
@<TRIPOS>BOND
     1    20    21    1
     2    21    16    1
     3    16    17    2
     4    16    18   am
     5    18    10    1
     6    10    11   ar
     7    11    12   ar
     8    12    22    1
     9    22    23    1
    10    22    24    1
    11    22    25    1
    12    12    13   ar
    13    13     1    1
    14     1     2   ar
    15     2     3   ar
    16     3    26    1
    17    26    27    1
    18    27    28    1
    19    28    29    1
    20    29    30    1
    21    30    31    1
    22     3     4   ar
    23     4     5   ar
    24     5     6   ar
    25     6    32    1
    26    32    33    1
    27    33    34    1
    28    34    35    1
    29    35    36    1
    30    36    39    1
    31    39    40    1
    32    39    41    2
    33    39    42    2
    34    36    37    1
    35    37    38    1
    36     6     7   ar
    37     7     8   ar
    38     8     9   ar
    39    13    14   ar
    40    14    15   ar
    41    15    10   ar
    42     9     1   ar
    43    31    26    1
    44     8     4   ar
    45    38    33    1
    46    18    19    1
