@<TRIPOS>MOLECULE
*****
 43 48 0 0 0
SMALL
GASTEIGER

@<TRIPOS>ATOM
      1 C         142.3212  143.0328  159.6394 C.3     1  UNL1        0.0765
      2 C         143.6867  142.6088  159.1859 C.3     1  UNL1        0.0246
      3 C         144.7195  142.2026  160.1950 C.3     1  UNL1        0.0277
      4 C         144.3868  142.2204  161.6575 C.ar    1  UNL1       -0.0258
      5 C         145.4197  141.8142  162.6666 C.ar    1  UNL1       -0.0014
      6 C         145.0870  141.8319  164.1291 C.ar    1  UNL1        0.0371
      7 C         143.7214  142.2559  164.5826 C.ar    1  UNL1        0.1450
      8 C         142.6886  142.6621  163.5735 C.ar    1  UNL1        0.0330
      9 C         143.0213  142.6443  162.1110 C.ar    1  UNL1       -0.0215
     10 C         141.9885  143.0505  161.1019 C.3     1  UNL1        0.0457
     11 C         141.2457  144.8516  158.1276 C.2     1  UNL1        0.2458
     12 O         142.2360  145.8580  158.6340 O.2     1  UNL1       -0.2701
     13 N         141.2883  143.4390  158.6303 N.am    1  UNL1       -0.3021
     14 H         140.6383  142.7785  158.2979 H       1  UNL1        0.1497
     15 C         139.2080  147.0437  155.5213 C.ar    1  UNL1        0.0193
     16 C         140.2408  146.6374  156.5304 C.ar    1  UNL1        0.0060
     17 C         140.2128  145.2578  157.1185 C.ar    1  UNL1        0.0534
     18 C         139.1520  144.2845  156.6976 C.ar    1  UNL1        0.0084
     19 C         138.1192  144.6907  155.6886 C.ar    1  UNL1        0.0716
     20 C         138.1472  146.0703  155.1004 C.ar    1  UNL1        0.0054
     21 C         138.5272  152.2389  154.8677 C.3     1  UNL1        0.1321
     22 N         138.9231  150.8113  154.6327 N.ar    1  UNL1       -0.3059
     23 C         139.6351  150.2813  153.4235 C.ar    1  UNL1        0.1786
     24 N         139.8285  148.8055  153.6092 N.ar    1  UNL1       -0.2239
     25 C         139.2360  148.4233  154.9332 C.ar    1  UNL1        0.1002
     26 C         138.6765  149.6629  155.5657 C.ar    1  UNL1        0.0965
     27 C         137.0583  143.7173  155.2676 C.3     1  UNL1        0.4186
     28 F         135.9975  142.7440  154.8467 F       1  UNL1       -0.1659
     29 F         137.2644  142.9441  156.5363 F       1  UNL1       -0.1659
     30 F         136.8523  144.4905  153.9989 F       1  UNL1       -0.1659
     31 O         143.3887  142.2736  166.0451 O.3     1  UNL1       -0.4537
     32 C         142.2227  141.4820  166.5587 C.ar    1  UNL1        0.1455
     33 C         141.5170  140.5143  165.6555 C.ar    1  UNL1        0.0579
     34 C         140.3510  139.7227  166.1691 C.ar    1  UNL1        0.1034
     35 N         139.8907  139.8987  167.5859 N.ar    1  UNL1       -0.2291
     36 C         140.5964  140.8664  168.4890 C.ar    1  UNL1        0.1330
     37 C         141.7624  141.6580  167.9754 C.ar    1  UNL1        0.0445
     38 C         142.4681  142.6256  168.8786 C.3     1  UNL1        0.0419
     39 C         142.0078  142.8017  170.2953 C.3     1  UNL1        0.0903
     40 C         140.8418  142.0100  170.8089 C.2     1  UNL1        0.2275
     41 O         140.3815  142.1860  172.2256 O.2     1  UNL1       -0.2747
     42 N         140.1361  141.0424  169.9058 N.am    1  UNL1       -0.2695
     43 H         139.3708  140.5228  170.2428 H       1  UNL1        0.1562
@<TRIPOS>BOND
     1    21    22    1
     2    22    23   ar
     3    23    24   ar
     4    24    25   ar
     5    25    15    1
     6    15    16   ar
     7    16    17   ar
     8    17    11    1
     9    11    12    2
    10    11    13   am
    11     1    13    1
    12     1     2    1
    13     2     3    1
    14     3     4    1
    15     4     5   ar
    16     5     6   ar
    17     6     7   ar
    18     7    31    1
    19    31    32    1
    20    32    33   ar
    21    33    34   ar
    22    34    35   ar
    23    35    36   ar
    24    36    37   ar
    25    37    38    1
    26    38    39    1
    27    39    40    1
    28    40    41    2
    29    40    42   am
    30     7     8   ar
    31     8     9   ar
    32     9    10    1
    33    17    18   ar
    34    18    19   ar
    35    19    27    1
    36    27    28    1
    37    27    29    1
    38    27    30    1
    39    19    20   ar
    40    25    26   ar
    41    26    22   ar
    42    20    15   ar
    43    10     1    1
    44     9     4   ar
    45    37    32   ar
    46    42    36    1
    47    13    14    1
    48    42    43    1
@<TRIPOS>MOLECULE
*****
 43 48 0 0 0
SMALL
GASTEIGER

@<TRIPOS>ATOM
      1 C         141.4808  139.1475  159.8584 C.3     1  UNL1        0.0765
      2 C         140.9180  140.1577  158.9031 C.3     1  UNL1        0.0246
      3 C         141.0353  139.9378  157.4239 C.3     1  UNL1        0.0277
      4 C         141.7155  138.7077  156.9002 C.ar    1  UNL1       -0.0258
      5 C         141.8328  138.4879  155.4210 C.ar    1  UNL1       -0.0014
      6 C         142.5130  137.2578  154.8972 C.ar    1  UNL1        0.0371
      7 C         143.0758  136.2476  155.8526 C.ar    1  UNL1        0.1450
      8 C         142.9585  136.4675  157.3317 C.ar    1  UNL1        0.0330
      9 C         142.2783  137.6975  157.8555 C.ar    1  UNL1       -0.0215
     10 C         142.1610  137.9174  159.3346 C.3     1  UNL1        0.0457
     11 C         140.2002  138.7938  162.0911 C.2     1  UNL1        0.2458
     12 O         139.1542  138.0005  161.3655 O.2     1  UNL1       -0.2701
     13 N         141.3635  139.3673  161.3376 N.am    1  UNL1       -0.3021
     14 H         142.0500  139.8880  161.8139 H       1  UNL1        0.1497
     15 C         140.9388  140.1319  165.7537 C.ar    1  UNL1        0.0193
     16 C         141.0560  139.9120  164.2746 C.ar    1  UNL1        0.0060
     17 C         140.0829  139.0137  163.5703 C.ar    1  UNL1        0.0534
     18 C         138.9924  138.3352  164.3452 C.ar    1  UNL1        0.0084
     19 C         138.8751  138.5551  165.8244 C.ar    1  UNL1        0.0716
     20 C         139.8483  139.4534  166.5286 C.ar    1  UNL1        0.0054
     21 C         143.7564  142.4936  169.5436 C.3     1  UNL1        0.1321
     22 N         143.2071  142.1158  168.2000 N.ar    1  UNL1       -0.3059
     23 C         143.6120  142.7094  166.8833 C.ar    1  UNL1        0.1786
     24 N         142.8115  142.0384  165.8066 N.ar    1  UNL1       -0.2239
     25 C         141.9120  141.0302  166.4579 C.ar    1  UNL1        0.1002
     26 C         142.1564  141.0780  167.9371 C.ar    1  UNL1        0.0965
     27 C         137.7846  137.8766  166.5994 C.3     1  UNL1        0.4186
     28 F         136.6941  137.1982  167.3743 F       1  UNL1       -0.1659
     29 F         137.4832  139.1660  167.3040 F       1  UNL1       -0.1659
     30 F         138.0860  136.5872  165.8947 F       1  UNL1       -0.1659
     31 O         143.7560  135.0176  155.3288 O.3     1  UNL1       -0.4537
     32 C         143.0310  133.7043  155.3236 C.ar    1  UNL1        0.1455
     33 C         141.8412  133.5080  154.4316 C.ar    1  UNL1        0.0579
     34 C         141.1163  132.1947  154.4264 C.ar    1  UNL1        0.1034
     35 N         141.5812  131.0779  155.3133 N.ar    1  UNL1       -0.2291
     36 C         142.7711  131.2743  156.2053 C.ar    1  UNL1        0.1330
     37 C         143.4960  132.5875  156.2105 C.ar    1  UNL1        0.0445
     38 C         144.6859  132.7839  157.1025 C.3     1  UNL1        0.0419
     39 C         145.1508  131.6671  157.9894 C.3     1  UNL1        0.0903
     40 C         144.4259  130.3538  157.9842 C.2     1  UNL1        0.2275
     41 O         144.8908  129.2370  158.8710 O.2     1  UNL1       -0.2747
     42 N         143.2361  130.1575  157.0922 N.am    1  UNL1       -0.2695
     43 H         142.7603  129.2956  157.0888 H       1  UNL1        0.1562
@<TRIPOS>BOND
     1    21    22    1
     2    22    23   ar
     3    23    24   ar
     4    24    25   ar
     5    25    15    1
     6    15    16   ar
     7    16    17   ar
     8    17    11    1
     9    11    12    2
    10    11    13   am
    11     1    13    1
    12     1     2    1
    13     2     3    1
    14     3     4    1
    15     4     5   ar
    16     5     6   ar
    17     6     7   ar
    18     7    31    1
    19    31    32    1
    20    32    33   ar
    21    33    34   ar
    22    34    35   ar
    23    35    36   ar
    24    36    37   ar
    25    37    38    1
    26    38    39    1
    27    39    40    1
    28    40    41    2
    29    40    42   am
    30     7     8   ar
    31     8     9   ar
    32     9    10    1
    33    17    18   ar
    34    18    19   ar
    35    19    27    1
    36    27    28    1
    37    27    29    1
    38    27    30    1
    39    19    20   ar
    40    25    26   ar
    41    26    22   ar
    42    20    15   ar
    43    10     1    1
    44     9     4   ar
    45    37    32   ar
    46    42    36    1
    47    13    14    1
    48    42    43    1
@<TRIPOS>MOLECULE
*****
 43 48 0 0 0
SMALL
GASTEIGER

@<TRIPOS>ATOM
      1 C         141.1461  138.6395  161.3163 C.3     1  UNL1        0.0765
      2 C         139.7610  138.0946  161.5022 C.3     1  UNL1        0.0246
      3 C         138.9206  138.5593  162.6545 C.3     1  UNL1        0.0277
      4 C         139.4654  139.5690  163.6209 C.ar    1  UNL1       -0.0258
      5 C         138.6250  140.0337  164.7732 C.ar    1  UNL1       -0.0014
      6 C         139.1697  141.0433  165.7396 C.ar    1  UNL1        0.0371
      7 C         140.5549  141.5882  165.5537 C.ar    1  UNL1        0.1450
      8 C         141.3952  141.1234  164.4014 C.ar    1  UNL1        0.0330
      9 C         140.8505  140.1138  163.4350 C.ar    1  UNL1       -0.0215
     10 C         141.6908  139.6491  162.2827 C.3     1  UNL1        0.0457
     11 C         141.7811  138.7643  158.8001 C.2     1  UNL1        0.2458
     12 O         140.7353  139.8186  158.5885 O.2     1  UNL1       -0.2701
     13 N         141.9865  138.1748  160.1640 N.am    1  UNL1       -0.3021
     14 H         142.6729  137.4828  160.3029 H       1  UNL1        0.1497
     15 C         144.2417  138.8290  155.6870 C.ar    1  UNL1        0.0193
     16 C         143.4013  139.2937  156.8393 C.ar    1  UNL1        0.0060
     17 C         142.6215  138.2996  157.6478 C.ar    1  UNL1        0.0534
     18 C         142.6821  136.8408  157.3040 C.ar    1  UNL1        0.0084
     19 C         143.5225  136.3761  156.1517 C.ar    1  UNL1        0.0716
     20 C         144.3023  137.3703  155.3432 C.ar    1  UNL1        0.0054
     21 C         147.6687  142.6063  154.3199 C.3     1  UNL1        0.1321
     22 N         146.5968  141.5594  154.2502 N.ar    1  UNL1       -0.3059
     23 C         145.8464  141.1466  153.0187 C.ar    1  UNL1        0.1786
     24 N         144.8728  140.0735  153.4071 N.ar    1  UNL1       -0.2239
     25 C         145.0215  139.8232  154.8786 C.ar    1  UNL1        0.1002
     26 C         146.0870  140.7415  155.3996 C.ar    1  UNL1        0.0965
     27 C         143.5831  134.9173  155.8078 C.3     1  UNL1        0.4186
     28 F         143.6437  133.4585  155.4640 F       1  UNL1       -0.1659
     29 F         143.8270  134.5874  157.2506 F       1  UNL1       -0.1659
     30 F         143.3392  135.2472  154.3650 F       1  UNL1       -0.1659
     31 O         141.0996  142.5978  166.5201 O.3     1  UNL1       -0.4537
     32 C         140.9695  142.3687  167.9968 C.ar    1  UNL1        0.1455
     33 C         140.2433  143.3665  168.8494 C.ar    1  UNL1        0.0579
     34 C         140.1132  143.1375  170.3262 C.ar    1  UNL1        0.1034
     35 N         140.7093  141.9106  170.9502 N.ar    1  UNL1       -0.2291
     36 C         141.4355  140.9128  170.0975 C.ar    1  UNL1        0.1330
     37 C         141.5656  141.1418  168.6208 C.ar    1  UNL1        0.0445
     38 C         142.2918  140.1440  167.7681 C.3     1  UNL1        0.0419
     39 C         142.8879  138.9171  168.3922 C.3     1  UNL1        0.0903
     40 C         142.7578  138.6881  169.8689 C.2     1  UNL1        0.2275
     41 O         143.3538  137.4612  170.4929 O.2     1  UNL1       -0.2747
     42 N         142.0316  139.6859  170.7215 N.am    1  UNL1       -0.2695
     43 H         141.9462  139.5355  171.6907 H       1  UNL1        0.1562
@<TRIPOS>BOND
     1    21    22    1
     2    22    23   ar
     3    23    24   ar
     4    24    25   ar
     5    25    15    1
     6    15    16   ar
     7    16    17   ar
     8    17    11    1
     9    11    12    2
    10    11    13   am
    11     1    13    1
    12     1     2    1
    13     2     3    1
    14     3     4    1
    15     4     5   ar
    16     5     6   ar
    17     6     7   ar
    18     7    31    1
    19    31    32    1
    20    32    33   ar
    21    33    34   ar
    22    34    35   ar
    23    35    36   ar
    24    36    37   ar
    25    37    38    1
    26    38    39    1
    27    39    40    1
    28    40    41    2
    29    40    42   am
    30     7     8   ar
    31     8     9   ar
    32     9    10    1
    33    17    18   ar
    34    18    19   ar
    35    19    27    1
    36    27    28    1
    37    27    29    1
    38    27    30    1
    39    19    20   ar
    40    25    26   ar
    41    26    22   ar
    42    20    15   ar
    43    10     1    1
    44     9     4   ar
    45    37    32   ar
    46    42    36    1
    47    13    14    1
    48    42    43    1
@<TRIPOS>MOLECULE
*****
 43 48 0 0 0
SMALL
GASTEIGER

@<TRIPOS>ATOM
      1 C         140.7057  138.6890  161.2170 C.3     1  UNL1        0.0765
      2 C         139.2484  138.3692  161.3715 C.3     1  UNL1        0.0246
      3 C         138.4673  138.9596  162.5078 C.3     1  UNL1        0.0277
      4 C         139.1436  139.8698  163.4897 C.ar    1  UNL1       -0.0258
      5 C         138.3625  140.4603  164.6261 C.ar    1  UNL1       -0.0014
      6 C         139.0387  141.3705  165.6080 C.ar    1  UNL1        0.0371
      7 C         140.4961  141.6903  165.4535 C.ar    1  UNL1        0.1450
      8 C         141.2772  141.0999  164.3172 C.ar    1  UNL1        0.0330
      9 C         140.6009  140.1897  163.3353 C.ar    1  UNL1       -0.0215
     10 C         141.3820  139.5993  162.1989 C.3     1  UNL1        0.0457
     11 C         141.8270  138.9407  158.8869 C.2     1  UNL1        0.2458
     12 O         141.3861  140.3733  158.8295 O.2     1  UNL1       -0.2701
     13 N         141.4868  138.0986  160.0806 N.am    1  UNL1       -0.3021
     14 H         141.7762  137.1583  160.1183 H       1  UNL1        0.1497
     15 C         143.4571  136.2711  156.4444 C.ar    1  UNL1        0.0193
     16 C         142.6761  136.8615  157.5808 C.ar    1  UNL1        0.0060
     17 C         142.6081  138.3503  157.7505 C.ar    1  UNL1        0.0534
     18 C         143.3213  139.2487  156.7839 C.ar    1  UNL1        0.0084
     19 C         144.1023  138.6583  155.6476 C.ar    1  UNL1        0.0716
     20 C         144.1703  137.1694  155.4779 C.ar    1  UNL1        0.0054
     21 C         143.2724  131.4470  154.3055 C.3     1  UNL1        0.1321
     22 N         143.4402  132.5648  155.2916 N.ar    1  UNL1       -0.3059
     23 C         143.8191  132.4175  156.7354 C.ar    1  UNL1        0.1786
     24 N         143.8716  133.7879  157.3430 N.ar    1  UNL1       -0.2239
     25 C         143.5251  134.7822  156.2747 C.ar    1  UNL1        0.1002
     26 C         143.2584  134.0263  155.0068 C.ar    1  UNL1        0.0965
     27 C         144.8155  139.5567  154.6810 C.3     1  UNL1        0.4186
     28 F         145.5287  140.4550  153.7144 F       1  UNL1       -0.1659
     29 F         145.6273  140.1241  155.8074 F       1  UNL1       -0.1659
     30 F         144.0037  138.9892  153.5545 F       1  UNL1       -0.1659
     31 O         141.1724  142.6006  166.4354 O.3     1  UNL1       -0.4537
     32 C         141.0112  142.3673  167.9084 C.ar    1  UNL1        0.1455
     33 C         140.2683  143.3633  168.7486 C.ar    1  UNL1        0.0579
     34 C         140.1071  143.1300  170.2216 C.ar    1  UNL1        0.1034
     35 N         140.6888  141.9007  170.8543 N.ar    1  UNL1       -0.2291
     36 C         141.4318  140.9047  170.0141 C.ar    1  UNL1        0.1330
     37 C         141.5929  141.1380  168.5411 C.ar    1  UNL1        0.0445
     38 C         142.3359  140.1419  167.7009 C.3     1  UNL1        0.0419
     39 C         142.9176  138.9126  168.3336 C.3     1  UNL1        0.0903
     40 C         142.7564  138.6793  169.8066 C.2     1  UNL1        0.2275
     41 O         143.3381  137.4500  170.4393 O.2     1  UNL1       -0.2747
     42 N         142.0135  139.6753  170.6468 N.am    1  UNL1       -0.2695
     43 H         141.9077  139.5222  171.6135 H       1  UNL1        0.1562
@<TRIPOS>BOND
     1    21    22    1
     2    22    23   ar
     3    23    24   ar
     4    24    25   ar
     5    25    15    1
     6    15    16   ar
     7    16    17   ar
     8    17    11    1
     9    11    12    2
    10    11    13   am
    11     1    13    1
    12     1     2    1
    13     2     3    1
    14     3     4    1
    15     4     5   ar
    16     5     6   ar
    17     6     7   ar
    18     7    31    1
    19    31    32    1
    20    32    33   ar
    21    33    34   ar
    22    34    35   ar
    23    35    36   ar
    24    36    37   ar
    25    37    38    1
    26    38    39    1
    27    39    40    1
    28    40    41    2
    29    40    42   am
    30     7     8   ar
    31     8     9   ar
    32     9    10    1
    33    17    18   ar
    34    18    19   ar
    35    19    27    1
    36    27    28    1
    37    27    29    1
    38    27    30    1
    39    19    20   ar
    40    25    26   ar
    41    26    22   ar
    42    20    15   ar
    43    10     1    1
    44     9     4   ar
    45    37    32   ar
    46    42    36    1
    47    13    14    1
    48    42    43    1
@<TRIPOS>MOLECULE
*****
 43 48 0 0 0
SMALL
GASTEIGER

@<TRIPOS>ATOM
      1 C         143.0258  138.3230  160.5597 C.3     1  UNL1        0.0765
      2 C         144.3951  138.8540  160.8647 C.3     1  UNL1        0.0246
      3 C         144.5840  139.8512  161.9690 C.3     1  UNL1        0.0277
      4 C         143.4035  140.3176  162.7685 C.ar    1  UNL1       -0.0258
      5 C         143.5925  141.3149  163.8729 C.ar    1  UNL1       -0.0014
      6 C         142.4120  141.7813  164.6723 C.ar    1  UNL1        0.0371
      7 C         141.0426  141.2503  164.3673 C.ar    1  UNL1        0.1450
      8 C         140.8538  140.2530  163.2629 C.ar    1  UNL1        0.0330
      9 C         142.0342  139.7867  162.4635 C.ar    1  UNL1       -0.0215
     10 C         141.8454  138.7894  161.3591 C.3     1  UNL1        0.0457
     11 C         142.4180  137.7877  158.0910 C.2     1  UNL1        0.2458
     12 O         142.1881  139.2470  157.8312 O.2     1  UNL1       -0.2701
     13 N         142.8369  137.3257  159.4552 N.am    1  UNL1       -0.3021
     14 H         142.9878  136.3679  159.6258 H       1  UNL1        0.1497
     15 C         142.6347  134.4210  156.0010 C.ar    1  UNL1        0.0193
     16 C         142.8236  135.4183  157.1053 C.ar    1  UNL1        0.0060
     17 C         142.2291  136.7904  156.9866 C.ar    1  UNL1        0.0534
     18 C         141.4458  137.1651  155.7636 C.ar    1  UNL1        0.0084
     19 C         141.2569  136.1678  154.6592 C.ar    1  UNL1        0.0716
     20 C         141.8513  134.7957  154.7779 C.ar    1  UNL1        0.0054
     21 C         143.1284  129.1907  156.5310 C.3     1  UNL1        0.1321
     22 N         143.4561  130.6448  156.3633 N.ar    1  UNL1       -0.3059
     23 C         144.8317  131.2302  156.2414 C.ar    1  UNL1        0.1786
     24 N         144.6914  132.7160  156.0908 N.ar    1  UNL1       -0.2239
     25 C         143.2291  133.0489  156.1197 C.ar    1  UNL1        0.1002
     26 C         142.4656  131.7688  156.2881 C.ar    1  UNL1        0.0965
     27 C         140.4735  136.5425  153.4361 C.3     1  UNL1        0.4186
     28 F         139.6903  136.9172  152.2130 F       1  UNL1       -0.1659
     29 F         141.7154  136.4212  152.6036 F       1  UNL1       -0.1659
     30 F         139.2317  136.6638  154.2685 F       1  UNL1       -0.1659
     31 O         139.8622  141.7167  165.1667 O.3     1  UNL1       -0.4537
     32 C         139.3350  140.8717  166.2884 C.ar    1  UNL1        0.1455
     33 C         138.4640  139.6875  165.9899 C.ar    1  UNL1        0.0579
     34 C         137.9368  138.8425  167.1116 C.ar    1  UNL1        0.1034
     35 N         138.2805  139.1818  168.5317 N.ar    1  UNL1       -0.2291
     36 C         139.1516  140.3660  168.8301 C.ar    1  UNL1        0.1330
     37 C         139.6787  141.2109  167.7085 C.ar    1  UNL1        0.0445
     38 C         140.5498  142.3952  168.0069 C.3     1  UNL1        0.0419
     39 C         140.8935  142.7344  169.4270 C.3     1  UNL1        0.0903
     40 C         140.3663  141.8895  170.5487 C.2     1  UNL1        0.2275
     41 O         140.7101  142.2287  171.9688 O.2     1  UNL1       -0.2747
     42 N         139.4953  140.7053  170.2503 N.am    1  UNL1       -0.2695
     43 H         139.1493  140.1507  170.9864 H       1  UNL1        0.1562
@<TRIPOS>BOND
     1    21    22    1
     2    22    23   ar
     3    23    24   ar
     4    24    25   ar
     5    25    15    1
     6    15    16   ar
     7    16    17   ar
     8    17    11    1
     9    11    12    2
    10    11    13   am
    11     1    13    1
    12     1     2    1
    13     2     3    1
    14     3     4    1
    15     4     5   ar
    16     5     6   ar
    17     6     7   ar
    18     7    31    1
    19    31    32    1
    20    32    33   ar
    21    33    34   ar
    22    34    35   ar
    23    35    36   ar
    24    36    37   ar
    25    37    38    1
    26    38    39    1
    27    39    40    1
    28    40    41    2
    29    40    42   am
    30     7     8   ar
    31     8     9   ar
    32     9    10    1
    33    17    18   ar
    34    18    19   ar
    35    19    27    1
    36    27    28    1
    37    27    29    1
    38    27    30    1
    39    19    20   ar
    40    25    26   ar
    41    26    22   ar
    42    20    15   ar
    43    10     1    1
    44     9     4   ar
    45    37    32   ar
    46    42    36    1
    47    13    14    1
    48    42    43    1
@<TRIPOS>MOLECULE
*****
 43 48 0 0 0
SMALL
GASTEIGER

@<TRIPOS>ATOM
      1 C         143.7558  140.0430  159.4951 C.3     1  UNL1        0.0765
      2 C         144.0618  141.4357  159.0297 C.3     1  UNL1        0.0246
      3 C         144.2041  142.5459  160.0284 C.3     1  UNL1        0.0277
      4 C         144.0403  142.2633  161.4924 C.ar    1  UNL1       -0.0258
      5 C         144.1826  143.3735  162.4910 C.ar    1  UNL1       -0.0014
      6 C         144.0187  143.0910  163.9550 C.ar    1  UNL1        0.0371
      7 C         143.7126  141.6982  164.4204 C.ar    1  UNL1        0.1450
      8 C         143.5704  140.5880  163.4218 C.ar    1  UNL1        0.0330
      9 C         143.7342  140.8706  161.9578 C.ar    1  UNL1       -0.0215
     10 C         143.5919  139.7605  160.9591 C.3     1  UNL1        0.0457
     11 C         142.2633  138.3401  158.2211 C.2     1  UNL1        0.2458
     12 O         141.0554  138.8577  158.9444 O.2     1  UNL1       -0.2701
     13 N         143.6135  138.9328  158.4965 N.am    1  UNL1       -0.3021
     14 H         144.4063  138.5931  158.0218 H       1  UNL1        0.1497
     15 C         142.7907  134.8674  156.3740 C.ar    1  UNL1        0.0193
     16 C         142.9329  135.9776  157.3726 C.ar    1  UNL1        0.0060
     17 C         142.1211  137.2299  157.2225 C.ar    1  UNL1        0.0534
     18 C         141.1670  137.3720  156.0739 C.ar    1  UNL1        0.0084
     19 C         141.0247  136.2618  155.0753 C.ar    1  UNL1        0.0716
     20 C         141.8366  135.0095  155.2254 C.ar    1  UNL1        0.0054
     21 C         144.9458  130.1379  155.4422 C.3     1  UNL1        0.1321
     22 N         144.5932  131.4411  156.0958 N.ar    1  UNL1       -0.3059
     23 C         145.1107  131.9346  157.4143 C.ar    1  UNL1        0.1786
     24 N         144.4985  133.2782  157.6790 N.ar    1  UNL1       -0.2239
     25 C         143.6026  133.6150  156.5241 C.ar    1  UNL1        0.1002
     26 C         143.6611  132.4796  155.5456 C.ar    1  UNL1        0.0965
     27 C         140.0706  136.4039  153.9266 C.3     1  UNL1        0.4186
     28 F         139.1165  136.5460  152.7780 F       1  UNL1       -0.1659
     29 F         139.4788  137.6233  154.5690 F       1  UNL1       -0.1659
     30 F         140.6623  135.1845  153.2842 F       1  UNL1       -0.1659
     31 O         143.5488  141.4156  165.8844 O.3     1  UNL1       -0.4537
     32 C         142.2244  140.9526  166.4153 C.ar    1  UNL1        0.1455
     33 C         141.3044  140.1526  165.5415 C.ar    1  UNL1        0.0579
     34 C         139.9801  139.6896  166.0724 C.ar    1  UNL1        0.1034
     35 N         139.5758  140.0266  167.4770 N.ar    1  UNL1       -0.2291
     36 C         140.4959  140.8267  168.3508 C.ar    1  UNL1        0.1330
     37 C         141.8202  141.2896  167.8199 C.ar    1  UNL1        0.0445
     38 C         142.7403  142.0897  168.6937 C.3     1  UNL1        0.0419
     39 C         142.3361  142.4267  170.0983 C.3     1  UNL1        0.0903
     40 C         141.0117  141.9637  170.6292 C.2     1  UNL1        0.2275
     41 O         140.6075  142.3008  172.0338 O.2     1  UNL1       -0.2747
     42 N         140.0917  141.1637  169.7554 N.am    1  UNL1       -0.2695
     43 H         139.2225  140.8598  170.1039 H       1  UNL1        0.1562
@<TRIPOS>BOND
     1    21    22    1
     2    22    23   ar
     3    23    24   ar
     4    24    25   ar
     5    25    15    1
     6    15    16   ar
     7    16    17   ar
     8    17    11    1
     9    11    12    2
    10    11    13   am
    11     1    13    1
    12     1     2    1
    13     2     3    1
    14     3     4    1
    15     4     5   ar
    16     5     6   ar
    17     6     7   ar
    18     7    31    1
    19    31    32    1
    20    32    33   ar
    21    33    34   ar
    22    34    35   ar
    23    35    36   ar
    24    36    37   ar
    25    37    38    1
    26    38    39    1
    27    39    40    1
    28    40    41    2
    29    40    42   am
    30     7     8   ar
    31     8     9   ar
    32     9    10    1
    33    17    18   ar
    34    18    19   ar
    35    19    27    1
    36    27    28    1
    37    27    29    1
    38    27    30    1
    39    19    20   ar
    40    25    26   ar
    41    26    22   ar
    42    20    15   ar
    43    10     1    1
    44     9     4   ar
    45    37    32   ar
    46    42    36    1
    47    13    14    1
    48    42    43    1
@<TRIPOS>MOLECULE
*****
 43 48 0 0 0
SMALL
GASTEIGER

@<TRIPOS>ATOM
      1 C         141.8957  142.5352  159.4193 C.3     1  UNL1        0.0765
      2 C         143.1411  141.8226  158.9821 C.3     1  UNL1        0.0246
      3 C         144.0979  141.2880  160.0062 C.3     1  UNL1        0.0277
      4 C         143.8093  141.4660  161.4674 C.ar    1  UNL1       -0.0258
      5 C         144.7662  140.9314  162.4914 C.ar    1  UNL1       -0.0014
      6 C         144.4776  141.1095  163.9526 C.ar    1  UNL1        0.0371
      7 C         143.2321  141.8221  164.3897 C.ar    1  UNL1        0.1450
      8 C         142.2753  142.3567  163.3657 C.ar    1  UNL1        0.0330
      9 C         142.5639  142.1786  161.9045 C.ar    1  UNL1       -0.0215
     10 C         141.6071  142.7132  160.8804 C.3     1  UNL1        0.0457
     11 C         140.9167  144.5368  158.0831 C.2     1  UNL1        0.2458
     12 O         141.8515  145.4692  158.7950 O.2     1  UNL1       -0.2701
     13 N         140.9388  143.0698  158.3952 N.am    1  UNL1       -0.3021
     14 H         140.3253  142.4578  157.9279 H       1  UNL1        0.1497
     15 C         138.0455  144.6786  155.3470 C.ar    1  UNL1        0.0193
     16 C         139.0024  144.1441  156.3711 C.ar    1  UNL1        0.0060
     17 C         139.9599  145.0714  157.0590 C.ar    1  UNL1        0.0534
     18 C         139.9605  146.5332  156.7230 C.ar    1  UNL1        0.0084
     19 C         139.0036  147.0678  155.6990 C.ar    1  UNL1        0.0716
     20 C         138.0461  146.1405  155.0110 C.ar    1  UNL1        0.0054
     21 C         134.6086  140.7727  154.4461 C.3     1  UNL1        0.1321
     22 N         135.5082  141.9559  154.2449 N.ar    1  UNL1       -0.3059
     23 C         135.7209  142.6927  152.9558 C.ar    1  UNL1        0.1786
     24 N         136.6973  143.8023  153.2118 N.ar    1  UNL1       -0.2239
     25 C         137.0880  143.7513  154.6591 C.ar    1  UNL1        0.1002
     26 C         136.3531  142.6102  155.2976 C.ar    1  UNL1        0.0965
     27 C         139.0042  148.5297  155.3629 C.3     1  UNL1        0.4186
     28 F         139.0048  149.9915  155.0269 F       1  UNL1       -0.1659
     29 F         138.5180  148.8477  156.7458 F       1  UNL1       -0.1659
     30 F         139.4905  148.2116  153.9800 F       1  UNL1       -0.1659
     31 O         142.9435  142.0001  165.8509 O.3     1  UNL1       -0.4537
     32 C         141.7930  141.2736  166.4821 C.ar    1  UNL1        0.1455
     33 C         141.0010  140.2832  165.6809 C.ar    1  UNL1        0.0579
     34 C         139.8505  139.5566  166.3121 C.ar    1  UNL1        0.1034
     35 N         139.4919  139.8205  167.7445 N.ar    1  UNL1       -0.2291
     36 C         140.2839  140.8109  168.5457 C.ar    1  UNL1        0.1330
     37 C         141.4344  141.5374  167.9145 C.ar    1  UNL1        0.0445
     38 C         142.2264  142.5279  168.7157 C.3     1  UNL1        0.0419
     39 C         141.8678  142.7918  170.1481 C.3     1  UNL1        0.0903
     40 C         140.7172  142.0652  170.7793 C.2     1  UNL1        0.2275
     41 O         140.3586  142.3291  172.2117 O.2     1  UNL1       -0.2747
     42 N         139.9253  141.0748  169.9781 N.am    1  UNL1       -0.2695
     43 H         139.1702  140.5980  170.3924 H       1  UNL1        0.1562
@<TRIPOS>BOND
     1    21    22    1
     2    22    23   ar
     3    23    24   ar
     4    24    25   ar
     5    25    15    1
     6    15    16   ar
     7    16    17   ar
     8    17    11    1
     9    11    12    2
    10    11    13   am
    11     1    13    1
    12     1     2    1
    13     2     3    1
    14     3     4    1
    15     4     5   ar
    16     5     6   ar
    17     6     7   ar
    18     7    31    1
    19    31    32    1
    20    32    33   ar
    21    33    34   ar
    22    34    35   ar
    23    35    36   ar
    24    36    37   ar
    25    37    38    1
    26    38    39    1
    27    39    40    1
    28    40    41    2
    29    40    42   am
    30     7     8   ar
    31     8     9   ar
    32     9    10    1
    33    17    18   ar
    34    18    19   ar
    35    19    27    1
    36    27    28    1
    37    27    29    1
    38    27    30    1
    39    19    20   ar
    40    25    26   ar
    41    26    22   ar
    42    20    15   ar
    43    10     1    1
    44     9     4   ar
    45    37    32   ar
    46    42    36    1
    47    13    14    1
    48    42    43    1
@<TRIPOS>MOLECULE
*****
 43 48 0 0 0
SMALL
GASTEIGER

@<TRIPOS>ATOM
      1 C         141.8825  141.5158  160.5619 C.3     1  UNL1        0.0765
      2 C         140.7979  142.5301  160.3499 C.3     1  UNL1        0.0246
      3 C         140.2137  143.2597  161.5230 C.3     1  UNL1        0.0277
      4 C         140.7140  142.9750  162.9082 C.ar    1  UNL1       -0.0258
      5 C         140.1297  143.7047  164.0814 C.ar    1  UNL1       -0.0014
      6 C         140.6300  143.4200  165.4665 C.ar    1  UNL1        0.0371
      7 C         141.7145  142.4057  165.6785 C.ar    1  UNL1        0.1450
      8 C         142.2988  141.6761  164.5054 C.ar    1  UNL1        0.0330
      9 C         141.7985  141.9607  163.1202 C.ar    1  UNL1       -0.0215
     10 C         142.3827  141.2311  161.9471 C.3     1  UNL1        0.0457
     11 C         141.9721  139.4147  159.0364 C.2     1  UNL1        0.2458
     12 O         140.8931  138.7727  159.8572 O.2     1  UNL1       -0.2701
     13 N         142.4668  140.7862  159.3887 N.am    1  UNL1       -0.3021
     14 H         143.1749  141.2075  158.8500 H       1  UNL1        0.1497
     15 C         142.8719  136.4908  156.5082 C.ar    1  UNL1        0.0193
     16 C         142.2876  137.2205  157.6813 C.ar    1  UNL1        0.0060
     17 C         142.5564  138.6850  157.8632 C.ar    1  UNL1        0.0534
     18 C         143.4093  139.4198  156.8721 C.ar    1  UNL1        0.0084
     19 C         143.9936  138.6901  155.6990 C.ar    1  UNL1        0.0716
     20 C         143.7249  137.2256  155.5171 C.ar    1  UNL1        0.0054
     21 C         143.1079  131.2406  157.0180 C.3     1  UNL1        0.1321
     22 N         142.7116  132.6131  156.5606 N.ar    1  UNL1       -0.3059
     23 C         141.6676  132.9324  155.5320 C.ar    1  UNL1        0.1786
     24 N         141.6006  134.4239  155.3872 N.ar    1  UNL1       -0.2239
     25 C         142.6032  135.0264  156.3263 C.ar    1  UNL1        0.1002
     26 C         143.2898  133.9072  157.0515 C.ar    1  UNL1        0.0965
     27 C         144.8466  139.4249  154.7077 C.3     1  UNL1        0.4186
     28 F         145.6996  140.1597  153.7166 F       1  UNL1       -0.1659
     29 F         145.7193  139.9174  155.8239 F       1  UNL1       -0.1659
     30 F         143.9739  138.9325  153.5916 F       1  UNL1       -0.1659
     31 O         142.2148  142.1210  167.0637 O.3     1  UNL1       -0.4537
     32 C         141.2427  141.8104  168.1631 C.ar    1  UNL1        0.1455
     33 C         141.3454  142.5237  169.4786 C.ar    1  UNL1        0.0579
     34 C         140.3733  142.2132  170.5781 C.ar    1  UNL1        0.1034
     35 N         139.2986  141.1893  170.3619 N.ar    1  UNL1       -0.2291
     36 C         139.1960  140.4760  169.0463 C.ar    1  UNL1        0.1330
     37 C         140.1681  140.7865  167.9469 C.ar    1  UNL1        0.0445
     38 C         140.0655  140.0732  166.6313 C.3     1  UNL1        0.0419
     39 C         138.9908  139.0493  166.4152 C.3     1  UNL1        0.0903
     40 C         138.0187  138.7388  167.5146 C.2     1  UNL1        0.2275
     41 O         136.9440  137.7149  167.2984 O.2     1  UNL1       -0.2747
     42 N         138.1213  139.4521  168.8301 N.am    1  UNL1       -0.2695
     43 H         137.4833  139.2482  169.5517 H       1  UNL1        0.1562
@<TRIPOS>BOND
     1    21    22    1
     2    22    23   ar
     3    23    24   ar
     4    24    25   ar
     5    25    15    1
     6    15    16   ar
     7    16    17   ar
     8    17    11    1
     9    11    12    2
    10    11    13   am
    11     1    13    1
    12     1     2    1
    13     2     3    1
    14     3     4    1
    15     4     5   ar
    16     5     6   ar
    17     6     7   ar
    18     7    31    1
    19    31    32    1
    20    32    33   ar
    21    33    34   ar
    22    34    35   ar
    23    35    36   ar
    24    36    37   ar
    25    37    38    1
    26    38    39    1
    27    39    40    1
    28    40    41    2
    29    40    42   am
    30     7     8   ar
    31     8     9   ar
    32     9    10    1
    33    17    18   ar
    34    18    19   ar
    35    19    27    1
    36    27    28    1
    37    27    29    1
    38    27    30    1
    39    19    20   ar
    40    25    26   ar
    41    26    22   ar
    42    20    15   ar
    43    10     1    1
    44     9     4   ar
    45    37    32   ar
    46    42    36    1
    47    13    14    1
    48    42    43    1
@<TRIPOS>MOLECULE
*****
 43 48 0 0 0
SMALL
GASTEIGER

@<TRIPOS>ATOM
      1 C         141.6735  143.1817  159.9475 C.3     1  UNL1        0.0765
      2 C         141.3780  144.6518  159.9091 C.3     1  UNL1        0.0246
      3 C         140.7321  145.3179  161.0877 C.3     1  UNL1        0.0277
      4 C         140.3818  144.5139  162.3046 C.ar    1  UNL1       -0.0258
      5 C         139.7359  145.1801  163.4833 C.ar    1  UNL1       -0.0014
      6 C         139.3855  144.3762  164.7002 C.ar    1  UNL1        0.0371
      7 C         139.6811  142.9060  164.7385 C.ar    1  UNL1        0.1450
      8 C         140.3269  142.2399  163.5599 C.ar    1  UNL1        0.0330
      9 C         140.6773  143.0438  162.3430 C.ar    1  UNL1       -0.0215
     10 C         141.3231  142.3777  161.1644 C.3     1  UNL1        0.0457
     11 C         143.7835  142.1909  158.8001 C.2     1  UNL1        0.2458
     12 O         144.6018  142.5325  160.0100 O.2     1  UNL1       -0.2701
     13 N         142.3194  142.5155  158.7689 N.am    1  UNL1       -0.3021
     14 H         141.7823  142.2913  157.9748 H       1  UNL1        0.1497
     15 C         144.5142  139.5750  155.9065 C.ar    1  UNL1        0.0193
     16 C         143.8683  140.2412  157.0850 C.ar    1  UNL1        0.0060
     17 C         144.4294  141.5247  157.6215 C.ar    1  UNL1        0.0534
     18 C         145.6362  142.1421  156.9794 C.ar    1  UNL1        0.0084
     19 C         146.2820  141.4759  155.8008 C.ar    1  UNL1        0.0716
     20 C         145.7210  140.1923  155.2644 C.ar    1  UNL1        0.0054
     21 C         141.6231  136.1222  153.1495 C.3     1  UNL1        0.1321
     22 N         142.6242  136.7043  154.1028 N.ar    1  UNL1       -0.3059
     23 C         143.5554  135.9281  154.9862 C.ar    1  UNL1        0.1786
     24 N         144.3767  136.9090  155.7694 N.ar    1  UNL1       -0.2239
     25 C         143.9531  138.2914  155.3700 C.ar    1  UNL1        0.1002
     26 C         142.8701  138.1649  154.3400 C.ar    1  UNL1        0.0965
     27 C         147.4890  142.0932  155.1586 C.3     1  UNL1        0.4186
     28 F         148.6958  142.7105  154.5165 F       1  UNL1       -0.1659
     29 F         147.3562  141.1485  154.0011 F       1  UNL1       -0.1659
     30 F         147.6217  143.0379  156.3162 F       1  UNL1       -0.1659
     31 O         139.3307  142.1020  165.9554 O.3     1  UNL1       -0.4537
     32 C         140.3307  141.9421  167.0621 C.ar    1  UNL1        0.1455
     33 C         140.3580  142.9237  168.1959 C.ar    1  UNL1        0.0579
     34 C         141.3580  142.7638  169.3025 C.ar    1  UNL1        0.1034
     35 N         142.3305  141.6221  169.2753 N.ar    1  UNL1       -0.2291
     36 C         142.3031  140.6404  168.1414 C.ar    1  UNL1        0.1330
     37 C         141.3032  140.8004  167.0349 C.ar    1  UNL1        0.0445
     38 C         141.2758  139.8187  165.9010 C.3     1  UNL1        0.0419
     39 C         142.2483  138.6770  165.8738 C.3     1  UNL1        0.0903
     40 C         143.2483  138.5170  166.9804 C.2     1  UNL1        0.2275
     41 O         144.2208  137.3753  166.9532 O.2     1  UNL1       -0.2747
     42 N         143.2756  139.4987  168.1142 N.am    1  UNL1       -0.2695
     43 H         143.9319  139.3937  168.8405 H       1  UNL1        0.1562
@<TRIPOS>BOND
     1    21    22    1
     2    22    23   ar
     3    23    24   ar
     4    24    25   ar
     5    25    15    1
     6    15    16   ar
     7    16    17   ar
     8    17    11    1
     9    11    12    2
    10    11    13   am
    11     1    13    1
    12     1     2    1
    13     2     3    1
    14     3     4    1
    15     4     5   ar
    16     5     6   ar
    17     6     7   ar
    18     7    31    1
    19    31    32    1
    20    32    33   ar
    21    33    34   ar
    22    34    35   ar
    23    35    36   ar
    24    36    37   ar
    25    37    38    1
    26    38    39    1
    27    39    40    1
    28    40    41    2
    29    40    42   am
    30     7     8   ar
    31     8     9   ar
    32     9    10    1
    33    17    18   ar
    34    18    19   ar
    35    19    27    1
    36    27    28    1
    37    27    29    1
    38    27    30    1
    39    19    20   ar
    40    25    26   ar
    41    26    22   ar
    42    20    15   ar
    43    10     1    1
    44     9     4   ar
    45    37    32   ar
    46    42    36    1
    47    13    14    1
    48    42    43    1
