@<TRIPOS>MOLECULE
*****
 35 39 0 0 0
SMALL
GASTEIGER

@<TRIPOS>ATOM
      1 C         142.8314  137.3250  159.2628 C.2     1  UNL1        0.0036
      2 C         142.8492  137.7695  160.6954 C.2     1  UNL1        0.0036
      3 C         142.7097  138.6544  161.8985 C.3     1  UNL1        0.1686
      4 O         142.4297  139.8730  162.7271 O.3     1  UNL1       -0.3442
      5 C         142.0429  141.2783  163.0812 C.3     1  UNL1        0.1721
      6 C         141.5960  142.7009  162.9182 C.ar    1  UNL1        0.0425
      7 C         141.1429  143.9691  162.2576 C.ar    1  UNL1        0.0158
      8 C         140.7383  144.9300  161.1793 C.ar    1  UNL1        0.0504
      9 C         140.7022  145.5460  162.5920 C.ar    1  UNL1        0.0178
     10 C         141.0096  145.0083  163.9583 C.ar    1  UNL1        0.0379
     11 C         141.4565  143.5857  164.1212 C.ar    1  UNL1        0.1370
     12 N         140.4309  145.4677  159.8130 N.pl3   1  UNL1       -0.2825
     13 C         140.2725  145.3569  158.0060 C.ar    1  UNL1        0.2208
     14 N         139.8194  146.6251  157.3454 N.ar    1  UNL1       -0.2120
     15 C         139.6464  146.6747  155.8563 C.ar    1  UNL1        0.1035
     16 C         139.9264  145.4561  155.0277 C.ar    1  UNL1        0.0430
     17 C         140.3795  144.1879  155.6882 C.ar    1  UNL1        0.1201
     18 N         140.5526  144.1383  157.1774 N.ar    1  UNL1       -0.2104
     19 C         140.6596  142.9693  154.8596 C.ar    1  UNL1        0.1626
     20 C         140.6258  142.5728  153.4134 C.ar    1  UNL1        0.0419
     21 C         141.0491  141.1370  153.3163 C.ar    1  UNL1        0.0387
     22 C         141.4933  140.1414  154.6685 C.ar    1  UNL1        0.1528
     23 O         141.0463  141.5640  154.5055 O.2     1  UNL1       -0.4537
     24 C         141.9463  138.8732  155.3291 C.3     1  UNL1        0.2064
     25 O         142.3510  137.9123  156.4075 O.3     1  UNL1       -0.3409
     26 C         142.6584  137.3746  157.7737 C.3     1  UNL1        0.1687
     27 H         140.1695  146.3985  159.9984 H       1  UNL1        0.1551
     28 O         141.7639  143.0480  165.4875 O.3     1  UNL1       -0.4742
     29 C         140.6469  142.7280  166.4363 C.3     1  UNL1        0.2226
     30 C         139.7963  141.5133  166.2107 C.3     1  UNL1        0.1200
     31 N         138.9018  141.4369  165.0090 N.3     1  UNL1       -0.2696
     32 C         138.0868  142.5620  164.4435 C.3     1  UNL1        0.0722
     33 C         137.3466  142.0424  163.2468 C.3     1  UNL1        0.0188
     34 C         137.7040  140.5960  163.0727 C.3     1  UNL1        0.0188
     35 C         138.6652  140.2218  164.1619 C.3     1  UNL1        0.0722
@<TRIPOS>BOND
     1     1     2    2
     2     2     3    1
     3     3     4    1
     4     4     5    1
     5     5     6    1
     6     6     7   ar
     7     7     8   ar
     8     8     9   ar
     9     9    10   ar
    10    10    11   ar
    11    11    28    1
    12    28    29    1
    13    29    30    1
    14    30    31    1
    15    31    32    1
    16    32    33    1
    17    33    34    1
    18    34    35    1
    19     8    12    1
    20    12    13    1
    21    13    14   ar
    22    14    15   ar
    23    15    16   ar
    24    16    17   ar
    25    17    18   ar
    26    17    19    1
    27    19    20   ar
    28    20    21   ar
    29    21    22   ar
    30    22    23   ar
    31    22    24    1
    32    24    25    1
    33    25    26    1
    34    26     1    1
    35    11     6   ar
    36    35    31    1
    37    18    13   ar
    38    23    19   ar
    39    12    27    1
@<TRIPOS>MOLECULE
*****
 35 39 0 0 0
SMALL
GASTEIGER

@<TRIPOS>ATOM
      1 C         139.6437  146.0312  161.3675 C.2     1  UNL1        0.0036
      2 C         139.4527  145.3228  162.6758 C.2     1  UNL1        0.0036
      3 C         139.4379  144.2202  163.6926 C.3     1  UNL1        0.1686
      4 O         139.6011  142.8564  164.2954 O.3     1  UNL1       -0.3442
      5 C         139.9226  141.3958  164.4114 C.3     1  UNL1        0.1721
      6 C         140.3636  140.0147  164.0266 C.ar    1  UNL1        0.0425
      7 C         140.8709  138.8797  163.1874 C.ar    1  UNL1        0.0158
      8 C         141.3834  138.1275  161.9951 C.ar    1  UNL1        0.0504
      9 C         141.2456  137.2525  163.2569 C.ar    1  UNL1        0.0178
     10 C         140.7898  137.5310  164.6587 C.ar    1  UNL1        0.0379
     11 C         140.3488  138.9121  165.0434 C.ar    1  UNL1        0.1370
     12 N         141.8392  137.8490  160.5934 N.pl3   1  UNL1       -0.2825
     13 C         142.2082  138.2962  158.8710 C.ar    1  UNL1        0.2208
     14 N         142.7155  137.1611  158.0318 N.ar    1  UNL1       -0.2120
     15 C         143.0597  137.3899  156.5899 C.ar    1  UNL1        0.1035
     16 C         142.8965  138.7537  155.9871 C.ar    1  UNL1        0.0430
     17 C         142.3892  139.8888  156.8263 C.ar    1  UNL1        0.1201
     18 N         142.0450  139.6600  158.2682 N.ar    1  UNL1       -0.2104
     19 C         142.2260  141.2526  156.2235 C.ar    1  UNL1        0.1626
     20 C         142.4337  141.9160  154.8943 C.ar    1  UNL1        0.0419
     21 C         142.0465  143.3588  155.0308 C.ar    1  UNL1        0.0387
     22 C         141.4635  144.0943  156.4923 C.ar    1  UNL1        0.1528
     23 O         141.9045  142.7131  156.1075 O.2     1  UNL1       -0.4537
     24 C         140.9562  145.2293  157.3315 C.3     1  UNL1        0.2064
     25 O         140.4436  145.9815  158.5239 O.3     1  UNL1       -0.3409
     26 C         139.9878  146.2600  159.9255 C.3     1  UNL1        0.1687
     27 H         142.0631  136.8907  160.6229 H       1  UNL1        0.1551
     28 O         139.8930  139.1906  166.4452 O.3     1  UNL1       -0.4742
     29 C         140.8073  139.8914  167.4059 C.3     1  UNL1        0.2226
     30 C         142.2636  139.5348  167.4509 C.3     1  UNL1        0.1200
     31 N         143.1467  139.8383  166.2770 N.3     1  UNL1       -0.2696
     32 C         143.9651  138.8432  165.5089 C.3     1  UNL1        0.0722
     33 C         144.6905  139.5801  164.4222 C.3     1  UNL1        0.0188
     34 C         144.3204  141.0305  164.5187 C.3     1  UNL1        0.0188
     35 C         143.3662  141.1901  165.6651 C.3     1  UNL1        0.0722
@<TRIPOS>BOND
     1     1     2    2
     2     2     3    1
     3     3     4    1
     4     4     5    1
     5     5     6    1
     6     6     7   ar
     7     7     8   ar
     8     8     9   ar
     9     9    10   ar
    10    10    11   ar
    11    11    28    1
    12    28    29    1
    13    29    30    1
    14    30    31    1
    15    31    32    1
    16    32    33    1
    17    33    34    1
    18    34    35    1
    19     8    12    1
    20    12    13    1
    21    13    14   ar
    22    14    15   ar
    23    15    16   ar
    24    16    17   ar
    25    17    18   ar
    26    17    19    1
    27    19    20   ar
    28    20    21   ar
    29    21    22   ar
    30    22    23   ar
    31    22    24    1
    32    24    25    1
    33    25    26    1
    34    26     1    1
    35    11     6   ar
    36    35    31    1
    37    18    13   ar
    38    23    19   ar
    39    12    27    1
@<TRIPOS>MOLECULE
*****
 35 39 0 0 0
SMALL
GASTEIGER

@<TRIPOS>ATOM
      1 C         140.3332  145.7540  158.3855 C.2     1  UNL1        0.0036
      2 C         140.4537  145.4988  159.8588 C.2     1  UNL1        0.0036
      3 C         140.7019  144.7733  161.1479 C.3     1  UNL1        0.1686
      4 O         141.0480  143.6650  162.0975 O.3     1  UNL1       -0.3442
      5 C         141.4501  142.3075  162.5931 C.3     1  UNL1        0.1721
      6 C         141.8597  140.8646  162.5749 C.ar    1  UNL1        0.0425
      7 C         142.2275  139.5104  162.0450 C.ar    1  UNL1        0.0158
      8 C         142.5091  138.4082  161.0674 C.ar    1  UNL1        0.0504
      9 C         142.6790  137.9789  162.5383 C.ar    1  UNL1        0.0178
     10 C         142.5176  138.6963  163.8458 C.ar    1  UNL1        0.0379
     11 C         142.1080  140.1391  163.8640 C.ar    1  UNL1        0.1370
     12 N         142.6705  137.6908  159.7599 N.pl3   1  UNL1       -0.2825
     13 C         142.6478  137.5632  157.9472 C.ar    1  UNL1        0.2208
     14 N         143.0156  136.2090  157.4173 N.ar    1  UNL1       -0.2120
     15 C         143.0374  135.9631  155.9378 C.ar    1  UNL1        0.1035
     16 C         142.6913  137.0715  154.9881 C.ar    1  UNL1        0.0430
     17 C         142.3235  138.4257  155.5180 C.ar    1  UNL1        0.1201
     18 N         142.3018  138.6716  156.9975 N.ar    1  UNL1       -0.2104
     19 C         141.9775  139.5340  154.5684 C.ar    1  UNL1        0.1626
     20 C         141.8708  139.7395  153.0863 C.ar    1  UNL1        0.0419
     21 C         141.4587  141.1613  152.8440 C.ar    1  UNL1        0.0387
     22 C         141.1657  142.3343  154.0910 C.ar    1  UNL1        0.1528
     23 O         141.5754  140.8914  154.0728 O.2     1  UNL1       -0.4537
     24 C         140.7979  143.6885  154.6209 C.3     1  UNL1        0.2064
     25 O         140.5163  144.7909  155.5986 O.3     1  UNL1       -0.3409
     26 C         140.3549  145.5082  156.9060 C.3     1  UNL1        0.1687
     27 H         142.9371  136.7852  160.0392 H       1  UNL1        0.1551
     28 O         141.9466  140.8565  165.1715 O.3     1  UNL1       -0.4742
     29 C         140.7608  140.5681  166.0438 C.3     1  UNL1        0.2226
     30 C         139.3768  140.8750  165.5536 C.3     1  UNL1        0.1200
     31 N         139.0163  142.2750  165.1534 N.3     1  UNL1       -0.2696
     32 C         139.6543  143.5311  165.6682 C.3     1  UNL1        0.0722
     33 C         138.9867  144.6970  165.0012 C.3     1  UNL1        0.0188
     34 C         137.9360  144.1615  164.0742 C.3     1  UNL1        0.0188
     35 C         137.9543  142.6646  164.1683 C.3     1  UNL1        0.0722
@<TRIPOS>BOND
     1     1     2    2
     2     2     3    1
     3     3     4    1
     4     4     5    1
     5     5     6    1
     6     6     7   ar
     7     7     8   ar
     8     8     9   ar
     9     9    10   ar
    10    10    11   ar
    11    11    28    1
    12    28    29    1
    13    29    30    1
    14    30    31    1
    15    31    32    1
    16    32    33    1
    17    33    34    1
    18    34    35    1
    19     8    12    1
    20    12    13    1
    21    13    14   ar
    22    14    15   ar
    23    15    16   ar
    24    16    17   ar
    25    17    18   ar
    26    17    19    1
    27    19    20   ar
    28    20    21   ar
    29    21    22   ar
    30    22    23   ar
    31    22    24    1
    32    24    25    1
    33    25    26    1
    34    26     1    1
    35    11     6   ar
    36    35    31    1
    37    18    13   ar
    38    23    19   ar
    39    12    27    1
@<TRIPOS>MOLECULE
*****
 35 39 0 0 0
SMALL
GASTEIGER

@<TRIPOS>ATOM
      1 C         139.6486  145.4146  156.1893 C.2     1  UNL1        0.0036
      2 C         140.3140  145.7142  157.4998 C.2     1  UNL1        0.0036
      3 C         141.0909  145.5069  158.7660 C.3     1  UNL1        0.1686
      4 O         141.8855  144.8176  159.8354 O.3     1  UNL1       -0.3442
      5 C         142.6021  143.7295  160.5787 C.3     1  UNL1        0.1721
      6 C         143.1542  142.3739  160.9065 C.ar    1  UNL1        0.0425
      7 C         143.4752  140.9142  160.7791 C.ar    1  UNL1        0.0158
      8 C         143.5263  139.5265  160.2120 C.ar    1  UNL1        0.0504
      9 C         144.2583  139.6626  161.5619 C.ar    1  UNL1        0.0178
     10 C         144.4831  140.8109  162.5005 C.ar    1  UNL1        0.0379
     11 C         143.9310  142.1665  162.1727 C.ar    1  UNL1        0.1370
     12 N         143.3015  138.3781  159.2734 N.pl3   1  UNL1       -0.2825
     13 C         142.6539  137.5965  157.7659 C.ar    1  UNL1        0.2208
     14 N         142.9749  136.1369  157.6386 N.ar    1  UNL1       -0.2120
     15 C         142.5012  135.3665  156.4419 C.ar    1  UNL1        0.1035
     16 C         141.7065  136.0557  155.3726 C.ar    1  UNL1        0.0430
     17 C         141.3855  137.5154  155.4999 C.ar    1  UNL1        0.1201
     18 N         141.8592  138.2858  156.6966 N.ar    1  UNL1       -0.2104
     19 C         140.5909  138.2047  154.4306 C.ar    1  UNL1        0.1626
     20 C         139.9413  137.8554  153.1245 C.ar    1  UNL1        0.0419
     21 C         139.2972  139.0961  152.5806 C.ar    1  UNL1        0.0387
     22 C         139.3222  140.6484  153.3595 C.ar    1  UNL1        0.1528
     23 O         139.8743  139.2927  153.6873 O.2     1  UNL1       -0.4537
     24 C         139.0012  142.1081  153.4869 C.3     1  UNL1        0.2064
     25 O         138.9500  143.4959  154.0541 O.3     1  UNL1       -0.3409
     26 C         139.1749  144.6442  154.9926 C.3     1  UNL1        0.1687
     27 H         143.7598  137.6334  159.7258 H       1  UNL1        0.1551
     28 O         144.1559  143.3149  163.1113 O.3     1  UNL1       -0.4742
     29 C         143.1230  143.6514  164.1457 C.3     1  UNL1        0.2226
     30 C         142.2470  144.8558  163.9668 C.3     1  UNL1        0.1200
     31 N         140.7580  144.6945  163.8842 N.3     1  UNL1       -0.2696
     32 C         139.8760  144.0967  164.9400 C.3     1  UNL1        0.0722
     33 C         138.4625  144.1355  164.4395 C.3     1  UNL1        0.0188
     34 C         138.4708  144.7572  163.0744 C.3     1  UNL1        0.0188
     35 C         139.8896  145.1027  162.7312 C.3     1  UNL1        0.0722
@<TRIPOS>BOND
     1     1     2    2
     2     2     3    1
     3     3     4    1
     4     4     5    1
     5     5     6    1
     6     6     7   ar
     7     7     8   ar
     8     8     9   ar
     9     9    10   ar
    10    10    11   ar
    11    11    28    1
    12    28    29    1
    13    29    30    1
    14    30    31    1
    15    31    32    1
    16    32    33    1
    17    33    34    1
    18    34    35    1
    19     8    12    1
    20    12    13    1
    21    13    14   ar
    22    14    15   ar
    23    15    16   ar
    24    16    17   ar
    25    17    18   ar
    26    17    19    1
    27    19    20   ar
    28    20    21   ar
    29    21    22   ar
    30    22    23   ar
    31    22    24    1
    32    24    25    1
    33    25    26    1
    34    26     1    1
    35    11     6   ar
    36    35    31    1
    37    18    13   ar
    38    23    19   ar
    39    12    27    1
@<TRIPOS>MOLECULE
*****
 35 39 0 0 0
SMALL
GASTEIGER

@<TRIPOS>ATOM
      1 C         142.6988  137.4724  158.8836 C.2     1  UNL1        0.0036
      2 C         142.4689  137.8166  160.3254 C.2     1  UNL1        0.0036
      3 C         142.1078  138.6130  161.5441 C.3     1  UNL1        0.1686
      4 O         141.6589  139.7654  162.3929 O.3     1  UNL1       -0.3442
      5 C         141.1766  141.1349  162.7693 C.3     1  UNL1        0.1721
      6 C         140.7188  142.5564  162.6280 C.ar    1  UNL1        0.0425
      7 C         140.3409  143.8582  161.9859 C.ar    1  UNL1        0.0158
      8 C         140.0883  144.8836  160.9206 C.ar    1  UNL1        0.0504
      9 C         139.8032  145.3992  162.3452 C.ar    1  UNL1        0.0178
     10 C         139.8999  144.7741  163.7054 C.ar    1  UNL1        0.0379
     11 C         140.3577  143.3527  163.8467 C.ar    1  UNL1        0.1370
     12 N         139.9917  145.5087  159.5604 N.pl3   1  UNL1       -0.2825
     13 C         140.1338  145.5205  157.7486 C.ar    1  UNL1        0.2208
     14 N         139.7559  146.8224  157.1066 N.ar    1  UNL1       -0.2120
     15 C         139.8268  146.9718  155.6158 C.ar    1  UNL1        0.1035
     16 C         140.2756  145.8194  154.7670 C.ar    1  UNL1        0.0430
     17 C         140.6536  144.5175  155.4090 C.ar    1  UNL1        0.1201
     18 N         140.5827  144.3681  156.8999 N.ar    1  UNL1       -0.2104
     19 C         141.1024  143.3650  154.5603 C.ar    1  UNL1        0.1626
     20 C         141.3173  143.0693  153.1055 C.ar    1  UNL1        0.0419
     21 C         141.7947  141.6522  152.9861 C.ar    1  UNL1        0.0387
     22 C         142.0426  140.5741  154.3252 C.ar    1  UNL1        0.1528
     23 O         141.5848  141.9956  154.1839 O.2     1  UNL1       -0.4537
     24 C         142.4205  139.2722  154.9673 C.3     1  UNL1        0.2064
     25 O         142.6730  138.2469  156.0327 O.3     1  UNL1       -0.3409
     26 C         142.7697  137.6218  157.3928 C.3     1  UNL1        0.1687
     27 H         139.6750  146.4191  159.7605 H       1  UNL1        0.1551
     28 O         140.4543  142.7276  165.2069 O.3     1  UNL1       -0.4742
     29 C         141.7271  142.8358  165.9933 C.3     1  UNL1        0.2226
     30 C         142.4856  141.5967  166.3664 C.3     1  UNL1        0.1200
     31 N         143.5084  141.0317  165.4258 N.3     1  UNL1       -0.2696
     32 C         144.4279  141.8235  164.5440 C.3     1  UNL1        0.0722
     33 C         145.2789  140.8568  163.7751 C.3     1  UNL1        0.0188
     34 C         144.8854  139.4676  164.1816 C.3     1  UNL1        0.0188
     35 C         143.7911  139.5757  165.2018 C.3     1  UNL1        0.0722
@<TRIPOS>BOND
     1     1     2    2
     2     2     3    1
     3     3     4    1
     4     4     5    1
     5     5     6    1
     6     6     7   ar
     7     7     8   ar
     8     8     9   ar
     9     9    10   ar
    10    10    11   ar
    11    11    28    1
    12    28    29    1
    13    29    30    1
    14    30    31    1
    15    31    32    1
    16    32    33    1
    17    33    34    1
    18    34    35    1
    19     8    12    1
    20    12    13    1
    21    13    14   ar
    22    14    15   ar
    23    15    16   ar
    24    16    17   ar
    25    17    18   ar
    26    17    19    1
    27    19    20   ar
    28    20    21   ar
    29    21    22   ar
    30    22    23   ar
    31    22    24    1
    32    24    25    1
    33    25    26    1
    34    26     1    1
    35    11     6   ar
    36    35    31    1
    37    18    13   ar
    38    23    19   ar
    39    12    27    1
@<TRIPOS>MOLECULE
*****
 35 39 0 0 0
SMALL
GASTEIGER

@<TRIPOS>ATOM
      1 C         140.7344  145.9298  159.0878 C.2     1  UNL1        0.0036
      2 C         140.3609  145.4744  160.4674 C.2     1  UNL1        0.0036
      3 C         140.1477  144.5673  161.6428 C.3     1  UNL1        0.1686
      4 O         140.1206  143.3179  162.4725 O.3     1  UNL1       -0.3442
      5 C         140.2828  141.8770  162.8562 C.3     1  UNL1        0.1721
      6 C         140.6147  140.4182  162.7477 C.ar    1  UNL1        0.0425
      7 C         141.0764  139.1176  162.1602 C.ar    1  UNL1        0.0158
      8 C         141.6121  138.1320  161.1644 C.ar    1  UNL1        0.0504
      9 C         141.2787  137.5006  162.5307 C.ar    1  UNL1        0.0178
     10 C         140.7335  138.0523  163.8148 C.ar    1  UNL1        0.0379
     11 C         140.4016  139.5111  163.9232 C.ar    1  UNL1        0.1370
     12 N         142.1572  137.5803  159.8804 N.pl3   1  UNL1       -0.2825
     13 C         142.7168  137.6934  158.1550 C.ar    1  UNL1        0.2208
     14 N         143.1784  136.3928  157.5675 N.ar    1  UNL1       -0.2120
     15 C         143.6672  136.3415  156.1503 C.ar    1  UNL1        0.1035
     16 C         143.6943  137.5909  155.3207 C.ar    1  UNL1        0.0430
     17 C         143.2327  138.8915  155.9082 C.ar    1  UNL1        0.1201
     18 N         142.7439  138.9428  157.3254 N.ar    1  UNL1       -0.2104
     19 C         143.2598  140.1409  155.0786 C.ar    1  UNL1        0.1626
     20 C         143.6471  140.5471  153.6876 C.ar    1  UNL1        0.0419
     21 C         143.3962  142.0194  153.5478 C.ar    1  UNL1        0.0387
     22 C         142.7656  143.0407  154.8033 C.ar    1  UNL1        0.1528
     23 O         143.0976  141.5819  154.6948 O.2     1  UNL1       -0.4537
     24 C         142.3040  144.3413  155.3909 C.3     1  UNL1        0.2064
     25 O         141.7682  145.3270  156.3867 O.3     1  UNL1       -0.3409
     26 C         141.2231  145.8786  157.6707 C.3     1  UNL1        0.1687
     27 H         142.2805  136.6258  160.0877 H       1  UNL1        0.1551
     28 O         139.8564  140.0628  165.2072 O.3     1  UNL1       -0.4742
     29 C         140.7666  140.2675  166.3818 C.3     1  UNL1        0.2226
     30 C         140.2260  140.1604  167.7769 C.3     1  UNL1        0.1200
     31 N         140.1769  141.3740  168.6573 N.3     1  UNL1       -0.2696
     32 C         140.5670  142.7671  168.2611 C.3     1  UNL1        0.0722
     33 C         140.3602  143.6614  169.4474 C.3     1  UNL1        0.0188
     34 C         139.8422  142.8211  170.5768 C.3     1  UNL1        0.0188
     35 C         139.7289  141.4073  170.0884 C.3     1  UNL1        0.0722
@<TRIPOS>BOND
     1     1     2    2
     2     2     3    1
     3     3     4    1
     4     4     5    1
     5     5     6    1
     6     6     7   ar
     7     7     8   ar
     8     8     9   ar
     9     9    10   ar
    10    10    11   ar
    11    11    28    1
    12    28    29    1
    13    29    30    1
    14    30    31    1
    15    31    32    1
    16    32    33    1
    17    33    34    1
    18    34    35    1
    19     8    12    1
    20    12    13    1
    21    13    14   ar
    22    14    15   ar
    23    15    16   ar
    24    16    17   ar
    25    17    18   ar
    26    17    19    1
    27    19    20   ar
    28    20    21   ar
    29    21    22   ar
    30    22    23   ar
    31    22    24    1
    32    24    25    1
    33    25    26    1
    34    26     1    1
    35    11     6   ar
    36    35    31    1
    37    18    13   ar
    38    23    19   ar
    39    12    27    1
@<TRIPOS>MOLECULE
*****
 35 39 0 0 0
SMALL
GASTEIGER

@<TRIPOS>ATOM
      1 C         137.2417  142.1334  156.4089 C.2     1  UNL1        0.0036
      2 C         137.7793  142.4957  157.7616 C.2     1  UNL1        0.0036
      3 C         138.6019  142.4335  159.0144 C.3     1  UNL1        0.1686
      4 O         139.6102  141.9543  160.0163 O.3     1  UNL1       -0.3442
      5 C         140.6826  141.1160  160.6463 C.3     1  UNL1        0.1721
      6 C         141.6899  140.0195  160.8285 C.ar    1  UNL1        0.0425
      7 C         142.5104  138.7972  160.5410 C.ar    1  UNL1        0.0158
      8 C         143.0452  137.5964  159.8184 C.ar    1  UNL1        0.0504
      9 C         143.7043  137.8265  161.1930 C.ar    1  UNL1        0.0178
     10 C         143.5196  138.8608  162.2636 C.ar    1  UNL1        0.0379
     11 C         142.5124  139.9573  162.0813 C.ar    1  UNL1        0.1370
     12 N         143.2299  136.5621  158.7478 N.pl3   1  UNL1       -0.2825
     13 C         142.8781  135.7828  157.1441 C.ar    1  UNL1        0.2208
     14 N         143.6986  134.5605  156.8566 N.ar    1  UNL1       -0.2120
     15 C         143.5108  133.8174  155.5673 C.ar    1  UNL1        0.1035
     16 C         142.5025  134.2966  154.5654 C.ar    1  UNL1        0.0430
     17 C         141.6820  135.5189  154.8529 C.ar    1  UNL1        0.1201
     18 N         141.8698  136.2620  156.1423 N.ar    1  UNL1       -0.2104
     19 C         140.6737  135.9981  153.8511 C.ar    1  UNL1        0.1626
     20 C         140.1688  135.5949  152.4974 C.ar    1  UNL1        0.0419
     21 C         139.1129  136.5772  152.0849 C.ar    1  UNL1        0.0387
     22 C         138.5940  137.9329  153.0388 C.ar    1  UNL1        0.1528
     23 O         139.6013  136.8364  153.2211 O.2     1  UNL1       -0.4537
     24 C         137.7735  139.1552  153.3263 C.3     1  UNL1        0.2064
     25 O         137.2386  140.3560  154.0490 O.3     1  UNL1       -0.3409
     26 C         137.0539  141.3903  155.1196 C.3     1  UNL1        0.1687
     27 H         143.9329  135.9834  159.1222 H       1  UNL1        0.1551
     28 O         142.3277  140.9916  163.1520 O.3     1  UNL1       -0.4742
     29 C         142.2031  140.5720  164.5867 C.3     1  UNL1        0.2226
     30 C         141.1715  139.5584  164.9847 C.3     1  UNL1        0.1200
     31 N         140.0720  139.1935  164.0318 N.3     1  UNL1       -0.2696
     32 C         138.9359  140.0800  163.6154 C.3     1  UNL1        0.0722
     33 C         138.0774  139.3124  162.6543 C.3     1  UNL1        0.0188
     34 C         138.6828  137.9515  162.4767 C.3     1  UNL1        0.0188
     35 C         139.9156  137.8781  163.3281 C.3     1  UNL1        0.0722
@<TRIPOS>BOND
     1     1     2    2
     2     2     3    1
     3     3     4    1
     4     4     5    1
     5     5     6    1
     6     6     7   ar
     7     7     8   ar
     8     8     9   ar
     9     9    10   ar
    10    10    11   ar
    11    11    28    1
    12    28    29    1
    13    29    30    1
    14    30    31    1
    15    31    32    1
    16    32    33    1
    17    33    34    1
    18    34    35    1
    19     8    12    1
    20    12    13    1
    21    13    14   ar
    22    14    15   ar
    23    15    16   ar
    24    16    17   ar
    25    17    18   ar
    26    17    19    1
    27    19    20   ar
    28    20    21   ar
    29    21    22   ar
    30    22    23   ar
    31    22    24    1
    32    24    25    1
    33    25    26    1
    34    26     1    1
    35    11     6   ar
    36    35    31    1
    37    18    13   ar
    38    23    19   ar
    39    12    27    1
@<TRIPOS>MOLECULE
*****
 35 39 0 0 0
SMALL
GASTEIGER

@<TRIPOS>ATOM
      1 C         139.6700  145.5627  156.4995 C.2     1  UNL1        0.0036
      2 C         140.3779  145.7702  157.8056 C.2     1  UNL1        0.0036
      3 C         141.1820  145.4713  159.0361 C.3     1  UNL1        0.1686
      4 O         141.9853  144.7021  160.0426 O.3     1  UNL1       -0.3442
      5 C         142.6908  143.5553  160.7037 C.3     1  UNL1        0.1721
      6 C         143.2135  142.1693  160.9397 C.ar    1  UNL1        0.0425
      7 C         143.4904  140.7112  160.7222 C.ar    1  UNL1        0.0158
      8 C         143.4880  139.3570  160.0773 C.ar    1  UNL1        0.0504
      9 C         144.2589  139.3972  161.4117 C.ar    1  UNL1        0.0178
     10 C         144.5403  140.4844  162.4063 C.ar    1  UNL1        0.0379
     11 C         144.0176  141.8704  162.1702 C.ar    1  UNL1        0.1370
     12 N         143.2066  138.2698  159.0827 N.pl3   1  UNL1       -0.2825
     13 C         142.4979  137.5919  157.5527 C.ar    1  UNL1        0.2208
     14 N         142.7747  136.1339  157.3352 N.ar    1  UNL1       -0.2120
     15 C         142.2483  135.4451  156.1111 C.ar    1  UNL1        0.1035
     16 C         141.4451  136.2143  155.1046 C.ar    1  UNL1        0.0430
     17 C         141.1682  137.6723  155.3221 C.ar    1  UNL1        0.1201
     18 N         141.6946  138.3612  156.5462 N.ar    1  UNL1       -0.2104
     19 C         140.3649  138.4416  154.3156 C.ar    1  UNL1        0.1626
     20 C         139.6716  138.1838  153.0107 C.ar    1  UNL1        0.0419
     21 C         139.0480  139.4698  152.5552 C.ar    1  UNL1        0.0387
     22 C         139.1367  140.9744  153.4185 C.ar    1  UNL1        0.1528
     23 O         139.6594  139.5883  153.6545 O.2     1  UNL1       -0.4537
     24 C         138.8598  142.4324  153.6360 C.3     1  UNL1        0.2064
     25 O         138.8622  143.7868  154.2810 O.3     1  UNL1       -0.3409
     26 C         139.1436  144.8739  155.2755 C.3     1  UNL1        0.1687
     27 H         143.6559  137.4890  159.4799 H       1  UNL1        0.1551
     28 O         144.2990  142.9576  163.1647 O.3     1  UNL1       -0.4742
     29 C         143.2671  143.3205  164.1912 C.3     1  UNL1        0.2226
     30 C         142.4275  142.2493  164.8218 C.3     1  UNL1        0.1200
     31 N         142.0415  142.3528  166.2676 N.3     1  UNL1       -0.2696
     32 C         142.9566  142.1611  167.4404 C.3     1  UNL1        0.0722
     33 C         142.1532  142.3561  168.6920 C.3     1  UNL1        0.0188
     34 C         140.7414  142.6683  168.2926 C.3     1  UNL1        0.0188
     35 C         140.6724  142.6662  166.7942 C.3     1  UNL1        0.0722
@<TRIPOS>BOND
     1     1     2    2
     2     2     3    1
     3     3     4    1
     4     4     5    1
     5     5     6    1
     6     6     7   ar
     7     7     8   ar
     8     8     9   ar
     9     9    10   ar
    10    10    11   ar
    11    11    28    1
    12    28    29    1
    13    29    30    1
    14    30    31    1
    15    31    32    1
    16    32    33    1
    17    33    34    1
    18    34    35    1
    19     8    12    1
    20    12    13    1
    21    13    14   ar
    22    14    15   ar
    23    15    16   ar
    24    16    17   ar
    25    17    18   ar
    26    17    19    1
    27    19    20   ar
    28    20    21   ar
    29    21    22   ar
    30    22    23   ar
    31    22    24    1
    32    24    25    1
    33    25    26    1
    34    26     1    1
    35    11     6   ar
    36    35    31    1
    37    18    13   ar
    38    23    19   ar
    39    12    27    1
@<TRIPOS>MOLECULE
*****
 35 39 0 0 0
SMALL
GASTEIGER

@<TRIPOS>ATOM
      1 C         140.3132  145.6708  158.3964 C.2     1  UNL1        0.0036
      2 C         140.7695  145.4662  159.8106 C.2     1  UNL1        0.0036
      3 C         141.3214  144.7883  161.0294 C.3     1  UNL1        0.1686
      4 O         141.9026  143.7187  161.9060 O.3     1  UNL1       -0.3442
      5 C         142.4427  142.3866  162.3345 C.3     1  UNL1        0.1721
      6 C         142.8768  140.9525  162.2633 C.ar    1  UNL1        0.0425
      7 C         143.1523  139.5895  161.7009 C.ar    1  UNL1        0.0158
      8 C         143.2362  138.4620  160.7153 C.ar    1  UNL1        0.0504
      9 C         143.7448  138.0844  162.1208 C.ar    1  UNL1        0.0178
     10 C         143.8628  138.8405  163.4110 C.ar    1  UNL1        0.0379
     11 C         143.4287  140.2746  163.4821 C.ar    1  UNL1        0.1370
     12 N         143.1183  137.7058  159.4251 N.pl3   1  UNL1       -0.2825
     13 C         142.6912  137.5188  157.6685 C.ar    1  UNL1        0.2208
     14 N         142.9667  136.1559  157.1062 N.ar    1  UNL1       -0.2120
     15 C         142.6612  135.8624  155.6673 C.ar    1  UNL1        0.1035
     16 C         142.0801  136.9320  154.7907 C.ar    1  UNL1        0.0430
     17 C         141.8045  138.2950  155.3531 C.ar    1  UNL1        0.1201
     18 N         142.1100  138.5884  156.7920 N.ar    1  UNL1       -0.2104
     19 C         141.2234  139.3645  154.4765 C.ar    1  UNL1        0.1626
     20 C         140.7800  139.5194  153.0520 C.ar    1  UNL1        0.0419
     21 C         140.2854  140.9239  152.8705 C.ar    1  UNL1        0.0387
     22 C         140.2492  142.1307  154.1192 C.ar    1  UNL1        0.1528
     23 O         140.6833  140.6966  154.0480 O.2     1  UNL1       -0.4537
     24 C         139.9736  143.4937  154.6816 C.3     1  UNL1        0.2064
     25 O         139.8897  144.6213  155.6673 O.3     1  UNL1       -0.3409
     26 C         140.0077  145.3774  156.9575 C.3     1  UNL1        0.1687
     27 H         143.4655  136.8154  159.6613 H       1  UNL1        0.1551
     28 O         143.5467  141.0307  164.7723 O.3     1  UNL1       -0.4742
     29 C         142.5636  140.7847  165.8783 C.3     1  UNL1        0.2226
     30 C         141.1095  141.0881  165.6704 C.3     1  UNL1        0.1200
     31 N         140.1151  139.9686  165.5808 N.3     1  UNL1       -0.2696
     32 C         139.0279  139.6737  166.5711 C.3     1  UNL1        0.0722
     33 C         138.2744  138.4702  166.0875 C.3     1  UNL1        0.0188
     34 C         138.8960  138.0213  164.7982 C.3     1  UNL1        0.0188
     35 C         140.0337  138.9474  164.4851 C.3     1  UNL1        0.0722
@<TRIPOS>BOND
     1     1     2    2
     2     2     3    1
     3     3     4    1
     4     4     5    1
     5     5     6    1
     6     6     7   ar
     7     7     8   ar
     8     8     9   ar
     9     9    10   ar
    10    10    11   ar
    11    11    28    1
    12    28    29    1
    13    29    30    1
    14    30    31    1
    15    31    32    1
    16    32    33    1
    17    33    34    1
    18    34    35    1
    19     8    12    1
    20    12    13    1
    21    13    14   ar
    22    14    15   ar
    23    15    16   ar
    24    16    17   ar
    25    17    18   ar
    26    17    19    1
    27    19    20   ar
    28    20    21   ar
    29    21    22   ar
    30    22    23   ar
    31    22    24    1
    32    24    25    1
    33    25    26    1
    34    26     1    1
    35    11     6   ar
    36    35    31    1
    37    18    13   ar
    38    23    19   ar
    39    12    27    1
