@<TRIPOS>MOLECULE
*****
 37 41 0 0 0
SMALL
GASTEIGER

@<TRIPOS>ATOM
      1 N         142.0423  139.5833  161.5390 N.ar    1  UNL1       -0.3063
      2 C         140.9993  140.1988  162.4241 C.ar    1  UNL1        0.1240
      3 C         139.7380  140.3408  161.6247 C.ar    1  UNL1        0.1156
      4 C         140.0015  139.8132  160.2455 C.ar    1  UNL1        0.0966
      5 C         141.4256  139.3451  160.1925 C.ar    1  UNL1        0.1349
      6 C         141.9768  138.7623  158.9251 C.ar    1  UNL1        0.2819
      7 O         143.4010  138.2941  158.8720 O.2     1  UNL1       -0.2652
      8 N         141.1039  138.6476  157.7106 N.ar    1  UNL1       -0.2416
      9 C         139.6799  139.1158  157.7636 C.ar    1  UNL1        0.3342
     10 O         138.8070  139.0011  156.5491 O.2     1  UNL1       -0.2462
     11 N         139.1287  139.6986  159.0310 N.ar    1  UNL1       -0.2770
     12 C         137.7046  140.1667  159.0840 C.3     1  UNL1        0.1351
     13 N         141.1850  140.6014  163.8571 N.pl3   1  UNL1       -0.2925
     14 C         141.6479  142.0103  164.0825 C.3     1  UNL1        0.0936
     15 C         141.9233  142.7077  165.3817 C.3     1  UNL1        0.0385
     16 C         141.8039  142.1684  166.7763 C.3     1  UNL1        0.0704
     17 N         141.3796  140.7986  167.2161 N.3     1  UNL1       -0.2960
     18 C         140.9698  139.6297  166.3701 C.3     1  UNL1        0.0903
     19 C         140.8833  139.5420  164.8752 C.3     1  UNL1        0.1092
     20 H         140.5808  140.9630  167.8288 H       1  UNL1        0.1233
     21 C         138.4411  140.9105  162.1179 C.1     1  UNL1        0.1047
     22 N         137.1441  141.4802  162.6112 N.1     1  UNL1       -0.1907
     23 C         143.4541  139.2625  161.9314 C.3     1  UNL1        0.1332
     24 C         145.9845  141.6529  163.8374 C.3     1  UNL1        0.0261
     25 C         145.0099  140.5443  163.5704 C.2     1  UNL1       -0.0460
     26 C         144.6167  139.6090  164.6751 C.3     1  UNL1        0.0261
     27 C         144.4286  140.3710  162.1985 C.2     1  UNL1       -0.0102
     28 C         141.6552  138.0648  156.4430 C.3     1  UNL1        0.1609
     29 C         141.8518  136.5826  156.3225 C.ar    1  UNL1        0.1012
     30 C         141.0655  135.6578  155.4414 C.ar    1  UNL1        0.0981
     31 N         141.5970  134.2687  155.6362 N.ar    1  UNL1       -0.2877
     32 C         141.2099  132.9519  155.0310 C.ar    1  UNL1        0.0815
     33 C         141.9375  131.7014  155.4274 C.ar    1  UNL1        0.0191
     34 C         143.0522  131.7678  156.4288 C.ar    1  UNL1        0.0046
     35 C         143.4393  133.0846  157.0340 C.ar    1  UNL1        0.0374
     36 C         142.7117  134.3351  156.6377 C.ar    1  UNL1        0.1475
     37 N         142.8691  135.7652  157.0618 N.ar    1  UNL1       -0.2288
@<TRIPOS>BOND
     1    24    25    1
     2    25    26    1
     3    25    27    2
     4    27    23    1
     5    23     1    1
     6     1     2   ar
     7     2    13    1
     8    13    14    1
     9    14    15    1
    10    15    16    1
    11    16    17    1
    12    17    18    1
    13    18    19    1
    14     2     3   ar
    15     3    21    1
    16    21    22    3
    17     3     4   ar
    18     4     5   ar
    19     5     6   ar
    20     6     7    2
    21     6     8   ar
    22     8    28    1
    23    28    29    1
    24    29    30   ar
    25    30    31   ar
    26    31    32   ar
    27    32    33   ar
    28    33    34   ar
    29    34    35   ar
    30    35    36   ar
    31    36    37   ar
    32     8     9   ar
    33     9    10    2
    34     9    11   ar
    35    11    12    1
    36     5     1   ar
    37    37    29   ar
    38    19    13    1
    39    11     4   ar
    40    36    31   ar
    41    17    20    1
@<TRIPOS>MOLECULE
*****
 37 41 0 0 0
SMALL
GASTEIGER

@<TRIPOS>ATOM
      1 N         141.8630  142.1334  163.5213 N.ar    1  UNL1       -0.3063
      2 C         141.5716  140.7771  164.0919 C.ar    1  UNL1        0.1240
      3 C         141.6351  139.7801  162.9731 C.ar    1  UNL1        0.1156
      4 C         141.9656  140.5201  161.7109 C.ar    1  UNL1        0.0966
      5 C         142.1065  141.9745  162.0497 C.ar    1  UNL1        0.1349
      6 C         142.4383  142.9664  160.9745 C.ar    1  UNL1        0.2819
      7 O         142.5792  144.4209  161.3132 O.2     1  UNL1       -0.2652
      8 N         142.6292  142.5037  159.5604 N.ar    1  UNL1       -0.2416
      9 C         142.4884  141.0494  159.2216 C.ar    1  UNL1        0.3342
     10 O         142.6793  140.5867  157.8075 O.2     1  UNL1       -0.2462
     11 N         142.1566  140.0575  160.2968 N.ar    1  UNL1       -0.2770
     12 C         142.0157  138.6031  159.9580 C.3     1  UNL1        0.1351
     13 N         141.2698  140.4716  165.5291 N.pl3   1  UNL1       -0.2925
     14 C         142.4516  140.4538  166.4528 C.3     1  UNL1        0.0936
     15 C         142.4814  140.1842  167.9281 C.3     1  UNL1        0.0385
     16 C         141.3370  139.8658  168.8440 C.3     1  UNL1        0.0704
     17 N         139.8801  139.7384  168.5109 N.3     1  UNL1       -0.2960
     18 C         139.2076  139.8979  167.1796 C.3     1  UNL1        0.0903
     19 C         139.8262  140.2242  165.8526 C.3     1  UNL1        0.1092
     20 H         139.4197  140.4209  169.1131 H       1  UNL1        0.1233
     21 C         141.4078  138.3024  163.0950 C.1     1  UNL1        0.1047
     22 N         141.1806  136.8247  163.2169 N.1     1  UNL1       -0.1907
     23 C         141.9037  143.4222  164.2876 C.3     1  UNL1        0.1332
     24 C         138.4605  144.9587  165.5262 C.3     1  UNL1        0.0261
     25 C         139.6042  144.5814  164.6318 C.2     1  UNL1       -0.0460
     26 C         139.5919  144.9861  163.1875 C.3     1  UNL1        0.0261
     27 C         140.7600  143.7995  165.1819 C.2     1  UNL1       -0.0102
     28 C         142.9611  143.4956  158.4851 C.3     1  UNL1        0.1609
     29 C         141.8618  144.1374  157.6916 C.ar    1  UNL1        0.1012
     30 C         140.6795  143.4339  157.0938 C.ar    1  UNL1        0.0981
     31 N         139.8388  144.4571  156.3894 N.ar    1  UNL1       -0.2877
     32 C         138.5555  144.3450  155.6210 C.ar    1  UNL1        0.0815
     33 C         137.9347  145.5688  155.0151 C.ar    1  UNL1        0.0191
     34 C         138.5973  146.9046  155.1776 C.ar    1  UNL1        0.0046
     35 C         139.8806  147.0167  155.9459 C.ar    1  UNL1        0.0374
     36 C         140.5014  145.7929  156.5519 C.ar    1  UNL1        0.1475
     37 N         141.7517  145.5953  157.3567 N.ar    1  UNL1       -0.2288
@<TRIPOS>BOND
     1    24    25    1
     2    25    26    1
     3    25    27    2
     4    27    23    1
     5    23     1    1
     6     1     2   ar
     7     2    13    1
     8    13    14    1
     9    14    15    1
    10    15    16    1
    11    16    17    1
    12    17    18    1
    13    18    19    1
    14     2     3   ar
    15     3    21    1
    16    21    22    3
    17     3     4   ar
    18     4     5   ar
    19     5     6   ar
    20     6     7    2
    21     6     8   ar
    22     8    28    1
    23    28    29    1
    24    29    30   ar
    25    30    31   ar
    26    31    32   ar
    27    32    33   ar
    28    33    34   ar
    29    34    35   ar
    30    35    36   ar
    31    36    37   ar
    32     8     9   ar
    33     9    10    2
    34     9    11   ar
    35    11    12    1
    36     5     1   ar
    37    37    29   ar
    38    19    13    1
    39    11     4   ar
    40    36    31   ar
    41    17    20    1
@<TRIPOS>MOLECULE
*****
 37 41 0 0 0
SMALL
GASTEIGER

@<TRIPOS>ATOM
      1 N         143.4703  142.5890  159.9410 N.ar    1  UNL1       -0.3063
      2 C         143.5725  142.8910  158.4753 C.ar    1  UNL1        0.1240
      3 C         142.5632  143.9516  158.1490 C.ar    1  UNL1        0.1156
      4 C         141.8373  144.3052  159.4131 C.ar    1  UNL1        0.0966
      5 C         142.3979  143.4631  160.5206 C.ar    1  UNL1        0.1349
      6 C         141.8594  143.6010  161.9138 C.ar    1  UNL1        0.2819
      7 O         142.4200  142.7589  163.0214 O.2     1  UNL1       -0.2652
      8 N         140.7603  144.5810  162.1995 N.ar    1  UNL1       -0.2416
      9 C         140.1997  145.4230  161.0920 C.ar    1  UNL1        0.3342
     10 O         139.1005  146.4030  161.3776 O.2     1  UNL1       -0.2462
     11 N         140.7381  145.2851  159.6988 N.ar    1  UNL1       -0.2770
     12 C         140.1775  146.1272  158.5913 C.3     1  UNL1        0.1351
     13 N         144.5180  142.2456  157.5060 N.pl3   1  UNL1       -0.2925
     14 C         143.9290  141.1728  156.6386 C.3     1  UNL1        0.0936
     15 C         144.6041  140.3478  155.5833 C.3     1  UNL1        0.0385
     16 C         146.0348  140.3919  155.1347 C.3     1  UNL1        0.0704
     17 N         147.1437  141.2718  155.6305 N.3     1  UNL1       -0.2960
     18 C         147.0959  142.3250  156.6975 C.3     1  UNL1        0.0903
     19 C         145.9274  142.7583  157.5322 C.3     1  UNL1        0.1092
     20 H         147.4698  141.7648  154.7992 H       1  UNL1        0.1233
     21 C         142.3222  144.5530  156.7962 C.1     1  UNL1        0.1047
     22 N         142.0813  145.1544  155.4433 N.1     1  UNL1       -0.1907
     23 C         144.2957  141.5887  160.6948 C.3     1  UNL1        0.1332
     24 C         143.8108  137.7447  161.5540 C.3     1  UNL1        0.0261
     25 C         144.0741  139.2120  161.7205 C.2     1  UNL1       -0.0460
     26 C         144.3789  139.7699  163.0791 C.3     1  UNL1        0.0261
     27 C         144.0325  140.1215  160.5284 C.2     1  UNL1       -0.0102
     28 C         140.2217  144.7189  163.5927 C.3     1  UNL1        0.1609
     29 C         139.8854  143.4945  164.3914 C.ar    1  UNL1        0.1012
     30 C         138.9686  142.3871  163.9635 C.ar    1  UNL1        0.0981
     31 N         138.9234  141.3708  165.0658 N.ar    1  UNL1       -0.2877
     32 C         138.1877  140.0709  165.2029 C.ar    1  UNL1        0.0815
     33 C         138.3408  139.2501  166.4491 C.ar    1  UNL1        0.0191
     34 C         139.2296  139.7295  167.5582 C.ar    1  UNL1        0.0046
     35 C         139.9653  141.0294  167.4211 C.ar    1  UNL1        0.0374
     36 C         139.8122  141.8502  166.1749 C.ar    1  UNL1        0.1475
     37 N         140.4068  143.1627  165.7581 N.ar    1  UNL1       -0.2288
@<TRIPOS>BOND
     1    24    25    1
     2    25    26    1
     3    25    27    2
     4    27    23    1
     5    23     1    1
     6     1     2   ar
     7     2    13    1
     8    13    14    1
     9    14    15    1
    10    15    16    1
    11    16    17    1
    12    17    18    1
    13    18    19    1
    14     2     3   ar
    15     3    21    1
    16    21    22    3
    17     3     4   ar
    18     4     5   ar
    19     5     6   ar
    20     6     7    2
    21     6     8   ar
    22     8    28    1
    23    28    29    1
    24    29    30   ar
    25    30    31   ar
    26    31    32   ar
    27    32    33   ar
    28    33    34   ar
    29    34    35   ar
    30    35    36   ar
    31    36    37   ar
    32     8     9   ar
    33     9    10    2
    34     9    11   ar
    35    11    12    1
    36     5     1   ar
    37    37    29   ar
    38    19    13    1
    39    11     4   ar
    40    36    31   ar
    41    17    20    1
@<TRIPOS>MOLECULE
*****
 37 41 0 0 0
SMALL
GASTEIGER

@<TRIPOS>ATOM
      1 N         140.5441  140.4159  161.3452 N.ar    1  UNL1       -0.3063
      2 C         141.3129  141.4379  162.1291 C.ar    1  UNL1        0.1240
      3 C         142.4618  141.9023  161.2839 C.ar    1  UNL1        0.1156
      4 C         142.4031  141.1673  159.9777 C.ar    1  UNL1        0.0966
      5 C         141.2179  140.2487  160.0156 C.ar    1  UNL1        0.1349
      6 C         140.9052  139.3786  158.8344 C.ar    1  UNL1        0.2819
      7 O         139.7200  138.4600  158.8722 O.2     1  UNL1       -0.2652
      8 N         141.7779  139.4272  157.6153 N.ar    1  UNL1       -0.2416
      9 C         142.9630  140.3458  157.5774 C.ar    1  UNL1        0.3342
     10 O         143.8357  140.3944  156.3583 O.2     1  UNL1       -0.2462
     11 N         143.2757  141.2159  158.7586 N.ar    1  UNL1       -0.2770
     12 C         144.4609  142.1345  158.7207 C.3     1  UNL1        0.1351
     13 N         140.9896  141.9122  163.5150 N.pl3   1  UNL1       -0.2925
     14 C         141.6582  141.1656  164.6310 C.3     1  UNL1        0.0936
     15 C         141.5427  141.3928  166.1092 C.3     1  UNL1        0.0385
     16 C         140.7302  142.4228  166.8364 C.3     1  UNL1        0.0704
     17 N         139.8324  143.4799  166.2651 N.3     1  UNL1       -0.2960
     18 C         139.5254  143.7682  164.8254 C.3     1  UNL1        0.0903
     19 C         140.0404  143.0704  163.6016 C.3     1  UNL1        0.1092
     20 H         140.2077  144.3566  166.6269 H       1  UNL1        0.1233
     21 C         143.4891  142.9225  161.6762 C.1     1  UNL1        0.1047
     22 N         144.5163  143.9427  162.0684 N.1     1  UNL1       -0.1907
     23 C         139.3170  139.6888  161.8095 C.3     1  UNL1        0.1332
     24 C         138.9779  137.6010  165.1675 C.3     1  UNL1        0.0261
     25 C         138.8565  138.7198  164.1757 C.2     1  UNL1       -0.0460
     26 C         138.1534  139.9883  164.5584 C.3     1  UNL1        0.0261
     27 C         139.4383  138.5701  162.8013 C.2     1  UNL1       -0.0102
     28 C         141.4653  138.5571  156.4340 C.3     1  UNL1        0.1609
     29 C         141.8281  137.1018  156.4575 C.ar    1  UNL1        0.1012
     30 C         141.1864  136.0199  155.6404 C.ar    1  UNL1        0.0981
     31 N         141.8579  134.7224  155.9801 N.ar    1  UNL1       -0.2877
     32 C         141.6438  133.3221  155.4870 C.ar    1  UNL1        0.0815
     33 C         142.4863  132.2017  156.0209 C.ar    1  UNL1        0.0191
     34 C         143.5429  132.4817  157.0480 C.ar    1  UNL1        0.0046
     35 C         143.7571  133.8821  157.5412 C.ar    1  UNL1        0.0374
     36 C         142.9146  135.0024  157.0073 C.ar    1  UNL1        0.1475
     37 N         142.8961  136.4730  157.3023 N.ar    1  UNL1       -0.2288
@<TRIPOS>BOND
     1    24    25    1
     2    25    26    1
     3    25    27    2
     4    27    23    1
     5    23     1    1
     6     1     2   ar
     7     2    13    1
     8    13    14    1
     9    14    15    1
    10    15    16    1
    11    16    17    1
    12    17    18    1
    13    18    19    1
    14     2     3   ar
    15     3    21    1
    16    21    22    3
    17     3     4   ar
    18     4     5   ar
    19     5     6   ar
    20     6     7    2
    21     6     8   ar
    22     8    28    1
    23    28    29    1
    24    29    30   ar
    25    30    31   ar
    26    31    32   ar
    27    32    33   ar
    28    33    34   ar
    29    34    35   ar
    30    35    36   ar
    31    36    37   ar
    32     8     9   ar
    33     9    10    2
    34     9    11   ar
    35    11    12    1
    36     5     1   ar
    37    37    29   ar
    38    19    13    1
    39    11     4   ar
    40    36    31   ar
    41    17    20    1
@<TRIPOS>MOLECULE
*****
 37 41 0 0 0
SMALL
GASTEIGER

@<TRIPOS>ATOM
      1 N         140.2526  142.1273  164.9801 N.ar    1  UNL1       -0.3063
      2 C         141.4201  142.3658  165.8912 C.ar    1  UNL1        0.1240
      3 C         142.5205  142.9858  165.0821 C.ar    1  UNL1        0.1156
      4 C         142.0331  143.1305  163.6709 C.ar    1  UNL1        0.0966
      5 C         140.6315  142.5999  163.6079 C.ar    1  UNL1        0.1349
      6 C         139.8813  142.6157  162.3091 C.ar    1  UNL1        0.2819
      7 O         138.4796  142.0851  162.2460 O.2     1  UNL1       -0.2652
      8 N         140.5328  143.1621  161.0733 N.ar    1  UNL1       -0.2416
      9 C         141.9343  143.6926  161.1363 C.ar    1  UNL1        0.3342
     10 O         142.5858  144.2390  159.9005 O.2     1  UNL1       -0.2462
     11 N         142.6845  143.6768  162.4351 N.ar    1  UNL1       -0.2770
     12 C         144.0862  144.2074  162.4981 C.3     1  UNL1        0.1351
     13 N         141.4772  142.0413  167.3546 N.pl3   1  UNL1       -0.2925
     14 C         142.3356  140.8694  167.7284 C.3     1  UNL1        0.0936
     15 C         142.5971  140.2984  169.0906 C.3     1  UNL1        0.0385
     16 C         142.0647  140.7583  170.4154 C.3     1  UNL1        0.0704
     17 N         141.1395  141.9027  170.7053 N.3     1  UNL1       -0.2960
     18 C         140.5179  142.8700  169.7418 C.3     1  UNL1        0.0903
     19 C         140.6683  142.9316  168.2507 C.3     1  UNL1        0.1092
     20 H         141.6568  142.4902  171.3592 H       1  UNL1        0.1233
     21 C         143.8711  143.3901  165.5943 C.1     1  UNL1        0.1047
     22 N         145.2218  143.7944  166.1065 N.1     1  UNL1       -0.1907
     23 C         138.9372  141.5224  165.3724 C.3     1  UNL1        0.1332
     24 C         138.3293  137.6399  165.9255 C.3     1  UNL1        0.0261
     25 C         138.6048  139.0863  166.2118 C.2     1  UNL1       -0.0460
     26 C         138.8233  139.5430  167.6238 C.3     1  UNL1        0.0261
     27 C         138.6617  140.0760  165.0861 C.2     1  UNL1       -0.0102
     28 C         139.7825  143.1778  159.7744 C.3     1  UNL1        0.1609
     29 C         139.7230  141.9411  158.9276 C.ar    1  UNL1        0.1012
     30 C         140.3335  140.6127  159.2631 C.ar    1  UNL1        0.0981
     31 N         140.0304  139.6663  158.1395 N.ar    1  UNL1       -0.2877
     32 C         140.3777  138.2235  157.9211 C.ar    1  UNL1        0.0815
     33 C         139.9274  137.5243  156.6727 C.ar    1  UNL1        0.0191
     34 C         139.1297  138.2679  155.6428 C.ar    1  UNL1        0.0046
     35 C         138.7823  139.7106  155.8613 C.ar    1  UNL1        0.0374
     36 C         139.2327  140.4099  157.1096 C.ar    1  UNL1        0.1475
     37 N         139.0427  141.8158  157.5967 N.ar    1  UNL1       -0.2288
@<TRIPOS>BOND
     1    24    25    1
     2    25    26    1
     3    25    27    2
     4    27    23    1
     5    23     1    1
     6     1     2   ar
     7     2    13    1
     8    13    14    1
     9    14    15    1
    10    15    16    1
    11    16    17    1
    12    17    18    1
    13    18    19    1
    14     2     3   ar
    15     3    21    1
    16    21    22    3
    17     3     4   ar
    18     4     5   ar
    19     5     6   ar
    20     6     7    2
    21     6     8   ar
    22     8    28    1
    23    28    29    1
    24    29    30   ar
    25    30    31   ar
    26    31    32   ar
    27    32    33   ar
    28    33    34   ar
    29    34    35   ar
    30    35    36   ar
    31    36    37   ar
    32     8     9   ar
    33     9    10    2
    34     9    11   ar
    35    11    12    1
    36     5     1   ar
    37    37    29   ar
    38    19    13    1
    39    11     4   ar
    40    36    31   ar
    41    17    20    1
@<TRIPOS>MOLECULE
*****
 37 41 0 0 0
SMALL
GASTEIGER

@<TRIPOS>ATOM
      1 N         141.3721  140.6115  164.4379 N.ar    1  UNL1       -0.3063
      2 C         142.2157  141.2836  165.4803 C.ar    1  UNL1        0.1240
      3 C         143.1053  142.2739  164.7889 C.ar    1  UNL1        0.1156
      4 C         142.8114  142.2138  163.3192 C.ar    1  UNL1        0.0966
      5 C         141.7403  141.1864  163.1023 C.ar    1  UNL1        0.1349
      6 C         141.2385  140.9070  161.7166 C.ar    1  UNL1        0.2819
      7 O         140.1673  139.8796  161.4996 O.2     1  UNL1       -0.2652
      8 N         141.8080  141.6552  160.5478 N.ar    1  UNL1       -0.2416
      9 C         142.8790  142.6826  160.7647 C.ar    1  UNL1        0.3342
     10 O         143.4485  143.4307  159.5958 O.2     1  UNL1       -0.2462
     11 N         143.3808  142.9619  162.1504 N.ar    1  UNL1       -0.2770
     12 C         144.4520  143.9893  162.3673 C.3     1  UNL1        0.1351
     13 N         142.1767  141.0130  166.9552 N.pl3   1  UNL1       -0.2925
     14 C         142.6906  139.6707  167.3844 C.3     1  UNL1        0.0936
     15 C         142.7836  139.1044  168.7703 C.3     1  UNL1        0.0385
     16 C         142.3857  139.7405  170.0692 C.3     1  UNL1        0.0704
     17 N         141.7966  141.0999  170.3030 N.3     1  UNL1       -0.2960
     18 C         141.4598  142.1591  169.2957 C.3     1  UNL1        0.0903
     19 C         141.6290  142.1204  167.8058 C.3     1  UNL1        0.1092
     20 H         142.4480  141.5540  170.9432 H       1  UNL1        0.1233
     21 C         144.1119  143.1674  165.4510 C.1     1  UNL1        0.1047
     22 N         145.1185  144.0609  166.1131 N.1     1  UNL1       -0.1907
     23 C         140.3413  139.5507  164.6874 C.3     1  UNL1        0.1332
     24 C         137.5221  138.6937  167.3459 C.3     1  UNL1        0.0261
     25 C         138.4862  138.5492  166.2058 C.2     1  UNL1       -0.0460
     26 C         138.5592  137.2591  165.4442 C.3     1  UNL1        0.0261
     27 C         139.3773  139.6950  165.8274 C.2     1  UNL1       -0.0102
     28 C         141.3062  141.3758  159.1620 C.3     1  UNL1        0.1609
     29 C         141.9517  140.3060  158.3321 C.ar    1  UNL1        0.1012
     30 C         141.7490  138.8278  158.4865 C.ar    1  UNL1        0.0981
     31 N         142.5852  138.1348  157.4519 N.ar    1  UNL1       -0.2877
     32 C         142.7845  136.6833  157.1300 C.ar    1  UNL1        0.0815
     33 C         143.7032  136.2817  156.0144 C.ar    1  UNL1        0.0191
     34 C         144.4227  137.3316  155.2206 C.ar    1  UNL1        0.0046
     35 C         144.2235  138.7830  155.5425 C.ar    1  UNL1        0.0374
     36 C         143.3047  139.1846  156.6581 C.ar    1  UNL1        0.1475
     37 N         142.9131  140.5265  157.2021 N.ar    1  UNL1       -0.2288
@<TRIPOS>BOND
     1    24    25    1
     2    25    26    1
     3    25    27    2
     4    27    23    1
     5    23     1    1
     6     1     2   ar
     7     2    13    1
     8    13    14    1
     9    14    15    1
    10    15    16    1
    11    16    17    1
    12    17    18    1
    13    18    19    1
    14     2     3   ar
    15     3    21    1
    16    21    22    3
    17     3     4   ar
    18     4     5   ar
    19     5     6   ar
    20     6     7    2
    21     6     8   ar
    22     8    28    1
    23    28    29    1
    24    29    30   ar
    25    30    31   ar
    26    31    32   ar
    27    32    33   ar
    28    33    34   ar
    29    34    35   ar
    30    35    36   ar
    31    36    37   ar
    32     8     9   ar
    33     9    10    2
    34     9    11   ar
    35    11    12    1
    36     5     1   ar
    37    37    29   ar
    38    19    13    1
    39    11     4   ar
    40    36    31   ar
    41    17    20    1
@<TRIPOS>MOLECULE
*****
 37 41 0 0 0
SMALL
GASTEIGER

@<TRIPOS>ATOM
      1 N         142.3718  140.5465  163.8120 N.ar    1  UNL1       -0.3063
      2 C         141.4339  140.2913  164.9544 C.ar    1  UNL1        0.1240
      3 C         140.1704  139.7074  164.3954 C.ar    1  UNL1        0.1156
      4 C         140.3274  139.6017  162.9074 C.ar    1  UNL1        0.0966
      5 C         141.6879  140.1203  162.5468 C.ar    1  UNL1        0.1349
      6 C         142.1283  140.1375  161.1130 C.ar    1  UNL1        0.2819
      7 O         143.4889  140.6561  160.7524 O.2     1  UNL1       -0.2652
      8 N         141.2081  139.6360  160.0398 N.ar    1  UNL1       -0.2416
      9 C         139.8477  139.1174  160.4003 C.ar    1  UNL1        0.3342
     10 O         138.9274  138.6159  159.3271 O.2     1  UNL1       -0.2462
     11 N         139.4073  139.1002  161.8341 N.ar    1  UNL1       -0.2770
     12 C         138.0467  138.5816  162.1947 C.3     1  UNL1        0.1351
     13 N         141.7109  140.5709  166.4019 N.pl3   1  UNL1       -0.2925
     14 C         142.3886  139.4680  167.1597 C.3     1  UNL1        0.0936
     15 C         142.7963  139.4384  168.6030 C.3     1  UNL1        0.0385
     16 C         142.6270  140.5042  169.6448 C.3     1  UNL1        0.0704
     17 N         142.0083  141.8629  169.5007 N.3     1  UNL1       -0.2960
     18 C         141.4059  142.4915  168.2791 C.3     1  UNL1        0.0903
     19 C         141.2736  141.9165  166.9001 C.3     1  UNL1        0.1092
     20 H         142.7437  142.5101  169.7848 H       1  UNL1        0.1233
     21 C         138.9621  139.3006  165.1856 C.1     1  UNL1        0.1047
     22 N         137.7538  138.8937  165.9758 N.1     1  UNL1       -0.1907
     23 C         143.7514  141.1262  163.9163 C.3     1  UNL1        0.1332
     24 C         143.8971  145.0726  164.3093 C.3     1  UNL1        0.0261
     25 C         143.6978  143.7150  163.7034 C.2     1  UNL1       -0.0460
     26 C         143.2459  143.5885  162.2787 C.3     1  UNL1        0.0261
     27 C         143.9506  142.4838  164.5222 C.2     1  UNL1       -0.0102
     28 C         141.6485  139.6531  158.6059 C.3     1  UNL1        0.1609
     29 C         141.8530  138.3629  157.8687 C.ar    1  UNL1        0.1012
     30 C         140.9962  137.8387  156.7547 C.ar    1  UNL1        0.0981
     31 N         141.5639  136.5222  156.3135 N.ar    1  UNL1       -0.2877
     32 C         141.1372  135.5496  155.2543 C.ar    1  UNL1        0.0815
     33 C         141.9181  134.2875  155.0365 C.ar    1  UNL1        0.0191
     34 C         143.1257  133.9981  155.8779 C.ar    1  UNL1        0.0046
     35 C         143.5524  134.9708  156.9370 C.ar    1  UNL1        0.0374
     36 C         142.7715  136.2329  157.1549 C.ar    1  UNL1        0.1475
     37 N         142.9502  137.3705  158.1160 N.ar    1  UNL1       -0.2288
@<TRIPOS>BOND
     1    24    25    1
     2    25    26    1
     3    25    27    2
     4    27    23    1
     5    23     1    1
     6     1     2   ar
     7     2    13    1
     8    13    14    1
     9    14    15    1
    10    15    16    1
    11    16    17    1
    12    17    18    1
    13    18    19    1
    14     2     3   ar
    15     3    21    1
    16    21    22    3
    17     3     4   ar
    18     4     5   ar
    19     5     6   ar
    20     6     7    2
    21     6     8   ar
    22     8    28    1
    23    28    29    1
    24    29    30   ar
    25    30    31   ar
    26    31    32   ar
    27    32    33   ar
    28    33    34   ar
    29    34    35   ar
    30    35    36   ar
    31    36    37   ar
    32     8     9   ar
    33     9    10    2
    34     9    11   ar
    35    11    12    1
    36     5     1   ar
    37    37    29   ar
    38    19    13    1
    39    11     4   ar
    40    36    31   ar
    41    17    20    1
@<TRIPOS>MOLECULE
*****
 37 41 0 0 0
SMALL
GASTEIGER

@<TRIPOS>ATOM
      1 N         139.8464  139.9850  160.1412 N.ar    1  UNL1       -0.3063
      2 C         140.4617  141.1317  160.8873 C.ar    1  UNL1        0.1240
      3 C         141.7849  141.4414  160.2523 C.ar    1  UNL1        0.1156
      4 C         141.9874  140.4861  159.1137 C.ar    1  UNL1        0.0966
      5 C         140.7894  139.5861  159.0450 C.ar    1  UNL1        0.1349
      6 C         140.7120  138.5195  157.9932 C.ar    1  UNL1        0.2819
      7 O         139.5140  137.6194  157.9244 O.2     1  UNL1       -0.2652
      8 N         141.8326  138.3530  157.0100 N.ar    1  UNL1       -0.2416
      9 C         143.0305  139.2530  157.0787 C.ar    1  UNL1        0.3342
     10 O         144.1512  139.0865  156.0955 O.2     1  UNL1       -0.2462
     11 N         143.1080  140.3196  158.1305 N.ar    1  UNL1       -0.2770
     12 C         144.3060  141.2196  158.1992 C.3     1  UNL1        0.1351
     13 N         139.8594  141.8436  162.0622 N.pl3   1  UNL1       -0.2925
     14 C         138.7320  142.7815  161.7470 C.3     1  UNL1        0.0936
     15 C         137.9310  143.6310  162.6887 C.3     1  UNL1        0.0385
     16 C         138.0596  143.7523  164.1783 C.3     1  UNL1        0.0704
     17 N         139.0209  143.0543  165.0939 N.3     1  UNL1       -0.2960
     18 C         140.0911  142.0623  164.7463 C.3     1  UNL1        0.0903
     19 C         140.4642  141.5236  163.3971 C.3     1  UNL1        0.1092
     20 H         138.4267  142.5650  165.7632 H       1  UNL1        0.1233
     21 C         142.7381  142.5174  160.6807 C.1     1  UNL1        0.1047
     22 N         143.6914  143.5934  161.1091 N.1     1  UNL1       -0.1907
     23 C         138.5210  139.3491  160.4389 C.3     1  UNL1        0.1332
     24 C         138.7157  137.8405  164.1045 C.3     1  UNL1        0.0261
     25 C         139.0833  138.1816  162.6907 C.2     1  UNL1       -0.0460
     26 C         140.3807  137.6964  162.1152 C.3     1  UNL1        0.0261
     27 C         138.1534  139.0080  161.8526 C.2     1  UNL1       -0.0102
     28 C         141.7551  137.2863  155.9581 C.3     1  UNL1        0.1609
     29 C         142.4636  135.9799  156.1611 C.ar    1  UNL1        0.1012
     30 C         143.1868  135.5530  157.4040 C.ar    1  UNL1        0.0981
     31 N         143.7434  134.1803  157.1680 N.ar    1  UNL1       -0.2877
     32 C         144.5465  133.2596  158.0383 C.ar    1  UNL1        0.0815
     33 C         144.9706  131.9174  157.5198 C.ar    1  UNL1        0.0191
     34 C         144.5914  131.4959  156.1310 C.ar    1  UNL1        0.0046
     35 C         143.7883  132.4166  155.2608 C.ar    1  UNL1        0.0374
     36 C         143.3643  133.7588  155.7793 C.ar    1  UNL1        0.1475
     37 N         142.5733  134.8711  155.1570 N.ar    1  UNL1       -0.2288
@<TRIPOS>BOND
     1    24    25    1
     2    25    26    1
     3    25    27    2
     4    27    23    1
     5    23     1    1
     6     1     2   ar
     7     2    13    1
     8    13    14    1
     9    14    15    1
    10    15    16    1
    11    16    17    1
    12    17    18    1
    13    18    19    1
    14     2     3   ar
    15     3    21    1
    16    21    22    3
    17     3     4   ar
    18     4     5   ar
    19     5     6   ar
    20     6     7    2
    21     6     8   ar
    22     8    28    1
    23    28    29    1
    24    29    30   ar
    25    30    31   ar
    26    31    32   ar
    27    32    33   ar
    28    33    34   ar
    29    34    35   ar
    30    35    36   ar
    31    36    37   ar
    32     8     9   ar
    33     9    10    2
    34     9    11   ar
    35    11    12    1
    36     5     1   ar
    37    37    29   ar
    38    19    13    1
    39    11     4   ar
    40    36    31   ar
    41    17    20    1
@<TRIPOS>MOLECULE
*****
 37 41 0 0 0
SMALL
GASTEIGER

@<TRIPOS>ATOM
      1 N         142.0428  141.0070  165.7811 N.ar    1  UNL1       -0.3063
      2 C         141.3797  141.0659  167.1253 C.ar    1  UNL1        0.1240
      3 C         140.2087  140.1286  167.1061 C.ar    1  UNL1        0.1156
      4 C         140.1480  139.4905  165.7499 C.ar    1  UNL1        0.0966
      5 C         141.2816  140.0333  164.9311 C.ar    1  UNL1        0.1349
      6 C         141.4741  139.5709  163.5172 C.ar    1  UNL1        0.2819
      7 O         142.6077  140.1137  162.6983 O.2     1  UNL1       -0.2652
      8 N         140.5331  138.5656  162.9222 N.ar    1  UNL1       -0.2416
      9 C         139.3997  138.0229  163.7410 C.ar    1  UNL1        0.3342
     10 O         138.4586  137.0176  163.1460 O.2     1  UNL1       -0.2462
     11 N         139.2071  138.4853  165.1549 N.ar    1  UNL1       -0.2770
     12 C         138.0736  137.9424  165.9737 C.3     1  UNL1        0.1351
     13 N         141.8118  141.9132  168.2852 N.pl3   1  UNL1       -0.2925
     14 C         143.2051  141.6706  168.7851 C.3     1  UNL1        0.0936
     15 C         143.9241  142.3461  169.9151 C.3     1  UNL1        0.0385
     16 C         143.4274  143.4308  170.8242 C.3     1  UNL1        0.0704
     17 N         142.0891  144.1081  170.8280 N.3     1  UNL1       -0.2960
     18 C         140.9168  143.8679  169.9234 C.3     1  UNL1        0.0903
     19 C         140.7935  142.8911  168.7919 C.3     1  UNL1        0.1092
     20 H         142.3036  145.0984  170.7108 H       1  UNL1        0.1233
     21 C         139.2642  139.8743  168.2433 C.1     1  UNL1        0.1047
     22 N         138.3197  139.6199  169.3805 N.1     1  UNL1       -0.1907
     23 C         143.2544  141.7850  165.3608 C.3     1  UNL1        0.1332
     24 C         143.7370  145.2078  163.4109 C.3     1  UNL1        0.0261
     25 C         143.8686  143.7630  163.7922 C.2     1  UNL1       -0.0460
     26 C         144.7459  142.8515  162.9864 C.3     1  UNL1        0.0261
     27 C         143.1228  143.2297  164.9794 C.2     1  UNL1       -0.0102
     28 C         140.7257  138.1032  161.5082 C.3     1  UNL1        0.1609
     29 C         140.2699  138.9654  160.3685 C.ar    1  UNL1        0.1012
     30 C         141.1562  139.6361  159.3612 C.ar    1  UNL1        0.0981
     31 N         140.2819  140.3934  158.4062 N.ar    1  UNL1       -0.2877
     32 C         140.6005  141.2415  157.2106 C.ar    1  UNL1        0.0815
     33 C         139.4926  141.8868  156.4321 C.ar    1  UNL1        0.0191
     34 C         138.0661  141.6841  156.8491 C.ar    1  UNL1        0.0046
     35 C         137.7475  140.8361  158.0447 C.ar    1  UNL1        0.0374
     36 C         138.8554  140.1907  158.8233 C.ar    1  UNL1        0.1475
     37 N         138.8480  139.3081  160.0361 N.ar    1  UNL1       -0.2288
@<TRIPOS>BOND
     1    24    25    1
     2    25    26    1
     3    25    27    2
     4    27    23    1
     5    23     1    1
     6     1     2   ar
     7     2    13    1
     8    13    14    1
     9    14    15    1
    10    15    16    1
    11    16    17    1
    12    17    18    1
    13    18    19    1
    14     2     3   ar
    15     3    21    1
    16    21    22    3
    17     3     4   ar
    18     4     5   ar
    19     5     6   ar
    20     6     7    2
    21     6     8   ar
    22     8    28    1
    23    28    29    1
    24    29    30   ar
    25    30    31   ar
    26    31    32   ar
    27    32    33   ar
    28    33    34   ar
    29    34    35   ar
    30    35    36   ar
    31    36    37   ar
    32     8     9   ar
    33     9    10    2
    34     9    11   ar
    35    11    12    1
    36     5     1   ar
    37    37    29   ar
    38    19    13    1
    39    11     4   ar
    40    36    31   ar
    41    17    20    1
