@<TRIPOS>MOLECULE
*****
 28 31 0 0 0
SMALL
GASTEIGER

@<TRIPOS>ATOM
      1 C         140.2866  141.6703  166.6908 C.3     1  UNL1        0.1620
      2 C         139.8430  140.7033  165.6335 C.ar    1  UNL1        0.0089
      3 C         140.8164  139.7121  165.0677 C.ar    1  UNL1       -0.0007
      4 C         140.3728  138.7450  164.0104 C.ar    1  UNL1        0.0112
      5 C         138.9557  138.7691  163.5188 C.ar    1  UNL1        0.0577
      6 CL        138.5121  137.8020  162.4615 Cl      1  UNL1       -0.0822
      7 C         137.9824  139.7603  164.0846 C.ar    1  UNL1        0.0112
      8 C         138.4261  140.7274  165.1420 C.ar    1  UNL1       -0.0007
      9 C         140.9693  141.1676  167.9283 C.ar    1  UNL1        0.0372
     10 C         140.2025  140.3578  168.9314 C.ar    1  UNL1        0.0023
     11 C         140.8852  139.8551  170.1688 C.ar    1  UNL1        0.0205
     12 C         142.3346  140.1622  170.4031 C.ar    1  UNL1        0.0998
     13 N         143.1014  140.9720  169.3999 N.ar    1  UNL1       -0.2327
     14 C         142.4187  141.4747  168.1625 C.ar    1  UNL1        0.1369
     15 CL        143.1855  142.2845  167.1593 Cl      1  UNL1       -0.0616
     16 O         140.0476  143.1402  166.5107 O.3     1  UNL1       -0.3463
     17 O         139.2293  146.3342  161.4819 O.2     1  UNL1       -0.2523
     18 C         140.1436  145.1943  161.8203 C.2     1  UNL1        0.3073
     19 N         141.0861  144.6560  160.7849 N.am    1  UNL1       -0.2640
     20 C         141.1142  145.2576  159.4111 C.3     1  UNL1        0.0949
     21 C         142.0567  144.7193  158.3758 C.3     1  UNL1        0.0216
     22 C         142.9710  143.5794  158.7142 C.3     1  UNL1        0.0035
     23 C         142.9429  142.9777  160.0880 C.3     1  UNL1        0.0216
     24 C         142.0005  143.5161  161.1233 C.3     1  UNL1        0.0949
     25 N         140.1155  144.5927  163.1940 N.am    1  UNL1       -0.2589
     26 C         140.8537  143.4821  163.8809 C.3     1  UNL1        0.1263
     27 C         140.0758  143.7418  165.1368 C.3     1  UNL1        0.1555
     28 C         139.3376  144.8524  164.4500 C.3     1  UNL1        0.1263
@<TRIPOS>BOND
     1    17    18    2
     2    18    19   am
     3    19    20    1
     4    20    21    1
     5    21    22    1
     6    22    23    1
     7    23    24    1
     8    18    25   am
     9    25    26    1
    10    26    27    1
    11    27    16    1
    12     1    16    1
    13     1     2    1
    14     2     3   ar
    15     3     4   ar
    16     4     5   ar
    17     5     6    1
    18     5     7   ar
    19     7     8   ar
    20     1     9    1
    21     9    10   ar
    22    10    11   ar
    23    11    12   ar
    24    12    13   ar
    25    13    14   ar
    26    14    15    1
    27    27    28    1
    28    24    19    1
    29    28    25    1
    30     8     2   ar
    31    14     9   ar
@<TRIPOS>MOLECULE
*****
 28 31 0 0 0
SMALL
GASTEIGER

@<TRIPOS>ATOM
      1 C         140.4053  141.7425  165.9072 C.3     1  UNL1        0.1620
      2 C         141.8070  141.6950  165.3755 C.ar    1  UNL1        0.0089
      3 C         142.3152  140.4503  164.7104 C.ar    1  UNL1       -0.0007
      4 C         143.7169  140.4029  164.1786 C.ar    1  UNL1        0.0112
      5 C         144.6106  141.6002  164.3120 C.ar    1  UNL1        0.0577
      6 CL        146.0124  141.5528  163.7803 Cl      1  UNL1       -0.0822
      7 C         144.1025  142.8450  164.9772 C.ar    1  UNL1        0.0112
      8 C         142.7006  142.8924  165.5089 C.ar    1  UNL1       -0.0007
      9 C         140.1413  141.4450  167.3536 C.ar    1  UNL1        0.0372
     10 C         140.5401  142.4347  168.4078 C.ar    1  UNL1        0.0023
     11 C         140.2761  142.1372  169.8540 C.ar    1  UNL1        0.0205
     12 C         139.6132  140.8499  170.2461 C.ar    1  UNL1        0.0998
     13 N         139.2144  139.8602  169.1919 N.ar    1  UNL1       -0.2327
     14 C         139.4784  140.1578  167.7456 C.ar    1  UNL1        0.1369
     15 CL        139.0796  139.1680  166.6914 Cl      1  UNL1       -0.0616
     16 O         139.2674  142.0873  164.9927 O.3     1  UNL1       -0.3463
     17 O         139.3399  146.5672  160.9819 O.2     1  UNL1       -0.2523
     18 C         140.0332  145.2378  161.0283 C.2     1  UNL1        0.3073
     19 N         140.9509  144.8313  159.9135 N.am    1  UNL1       -0.2640
     20 C         141.1751  145.7540  158.7524 C.3     1  UNL1        0.0949
     21 C         142.0928  145.3474  157.6377 C.3     1  UNL1        0.0216
     22 C         142.7861  144.0181  157.6841 C.3     1  UNL1        0.0035
     23 C         142.5618  143.0953  158.8452 C.3     1  UNL1        0.0216
     24 C         141.6442  143.5019  159.9599 C.3     1  UNL1        0.0949
     25 N         139.8089  144.3151  162.1894 N.am    1  UNL1       -0.2589
     26 C         140.3080  142.9539  162.5743 C.3     1  UNL1        0.1263
     27 C         139.4918  143.0101  163.8315 C.3     1  UNL1        0.1555
     28 C         138.9927  144.3713  163.4466 C.3     1  UNL1        0.1263
@<TRIPOS>BOND
     1    17    18    2
     2    18    19   am
     3    19    20    1
     4    20    21    1
     5    21    22    1
     6    22    23    1
     7    23    24    1
     8    18    25   am
     9    25    26    1
    10    26    27    1
    11    27    16    1
    12     1    16    1
    13     1     2    1
    14     2     3   ar
    15     3     4   ar
    16     4     5   ar
    17     5     6    1
    18     5     7   ar
    19     7     8   ar
    20     1     9    1
    21     9    10   ar
    22    10    11   ar
    23    11    12   ar
    24    12    13   ar
    25    13    14   ar
    26    14    15    1
    27    27    28    1
    28    24    19    1
    29    28    25    1
    30     8     2   ar
    31    14     9   ar
@<TRIPOS>MOLECULE
*****
 28 31 0 0 0
SMALL
GASTEIGER

@<TRIPOS>ATOM
      1 C         139.8834  139.8317  166.3683 C.3     1  UNL1        0.1620
      2 C         139.3614  141.0046  165.5925 C.ar    1  UNL1        0.0089
      3 C         140.0567  142.3308  165.6796 C.ar    1  UNL1       -0.0007
      4 C         139.5348  143.5037  164.9038 C.ar    1  UNL1        0.0112
      5 C         138.3175  143.3503  164.0407 C.ar    1  UNL1        0.0577
      6 CL        137.7955  144.5231  163.2649 Cl      1  UNL1       -0.0822
      7 C         137.6222  142.0240  163.9536 C.ar    1  UNL1        0.0112
      8 C         138.1442  140.8511  164.7295 C.ar    1  UNL1       -0.0007
      9 C         140.2974  140.0037  167.7999 C.ar    1  UNL1        0.0372
     10 C         139.2566  140.1802  168.8655 C.ar    1  UNL1        0.0023
     11 C         139.6706  140.3521  170.2969 C.ar    1  UNL1        0.0205
     12 C         141.1253  140.3475  170.6627 C.ar    1  UNL1        0.0998
     13 N         142.1661  140.1710  169.5970 N.ar    1  UNL1       -0.2327
     14 C         141.7521  139.9991  168.1656 C.ar    1  UNL1        0.1369
     15 CL        142.7928  139.8225  167.0999 Cl      1  UNL1       -0.0616
     16 O         139.9914  138.4869  165.7128 O.3     1  UNL1       -0.3463
     17 O         144.0778  137.6393  161.3834 O.2     1  UNL1       -0.2523
     18 C         142.6154  137.9708  161.3451 C.2     1  UNL1        0.3073
     19 N         141.9215  138.1512  160.0274 N.am    1  UNL1       -0.2640
     20 C         142.6900  138.0000  158.7482 C.3     1  UNL1        0.0949
     21 C         141.9961  138.1804  157.4307 C.3     1  UNL1        0.0216
     22 C         140.5337  138.5119  157.3924 C.3     1  UNL1        0.0035
     23 C         139.7652  138.6630  158.6716 C.3     1  UNL1        0.0216
     24 C         140.4591  138.4827  159.9891 C.3     1  UNL1        0.0949
     25 N         141.8469  138.1220  162.6243 N.am    1  UNL1       -0.2589
     26 C         140.4231  138.4378  162.9753 C.3     1  UNL1        0.1263
     27 C         140.7600  138.3358  164.4334 C.3     1  UNL1        0.1555
     28 C         142.1837  138.0199  164.0824 C.3     1  UNL1        0.1263
@<TRIPOS>BOND
     1    17    18    2
     2    18    19   am
     3    19    20    1
     4    20    21    1
     5    21    22    1
     6    22    23    1
     7    23    24    1
     8    18    25   am
     9    25    26    1
    10    26    27    1
    11    27    16    1
    12     1    16    1
    13     1     2    1
    14     2     3   ar
    15     3     4   ar
    16     4     5   ar
    17     5     6    1
    18     5     7   ar
    19     7     8   ar
    20     1     9    1
    21     9    10   ar
    22    10    11   ar
    23    11    12   ar
    24    12    13   ar
    25    13    14   ar
    26    14    15    1
    27    27    28    1
    28    24    19    1
    29    28    25    1
    30     8     2   ar
    31    14     9   ar
@<TRIPOS>MOLECULE
*****
 28 31 0 0 0
SMALL
GASTEIGER

@<TRIPOS>ATOM
      1 C         140.3922  142.1910  166.5110 C.3     1  UNL1        0.1620
      2 C         140.2699  143.2080  165.4153 C.ar    1  UNL1        0.0089
      3 C         141.4810  143.6109  164.6273 C.ar    1  UNL1       -0.0007
      4 C         141.3586  144.6279  163.5316 C.ar    1  UNL1        0.0112
      5 C         140.0251  145.2421  163.2238 C.ar    1  UNL1        0.0577
      6 CL        139.9028  146.2591  162.1280 Cl      1  UNL1       -0.0822
      7 C         138.8140  144.8392  164.0117 C.ar    1  UNL1        0.0112
      8 C         138.9364  143.8221  165.1075 C.ar    1  UNL1       -0.0007
      9 C         141.1250  142.5339  167.7742 C.ar    1  UNL1        0.0372
     10 C         140.4085  143.2343  168.8904 C.ar    1  UNL1        0.0023
     11 C         141.1413  143.5771  170.1535 C.ar    1  UNL1        0.0205
     12 C         142.5907  143.2196  170.3003 C.ar    1  UNL1        0.0998
     13 N         143.3072  142.5192  169.1841 N.ar    1  UNL1       -0.2327
     14 C         142.5744  142.1764  167.9210 C.ar    1  UNL1        0.1369
     15 CL        143.2909  141.4760  166.8047 Cl      1  UNL1       -0.0616
     16 O         139.7817  140.8311  166.3437 O.3     1  UNL1       -0.3463
     17 O         137.4723  138.5119  161.2991 O.2     1  UNL1       -0.2523
     18 C         138.8445  139.0047  161.6518 C.2     1  UNL1        0.3073
     19 N         139.9421  138.9625  160.6303 N.am    1  UNL1       -0.2640
     20 C         139.6676  138.4276  159.2561 C.3     1  UNL1        0.0949
     21 C         140.7652  138.3854  158.2346 C.3     1  UNL1        0.0216
     22 C         142.1373  138.8782  158.5874 C.3     1  UNL1        0.0035
     23 C         142.4119  139.4131  159.9615 C.3     1  UNL1        0.0216
     24 C         141.3142  139.4553  160.9830 C.3     1  UNL1        0.0949
     25 N         139.1190  139.5396  163.0260 N.am    1  UNL1       -0.2589
     26 C         140.3214  140.1018  163.7247 C.3     1  UNL1        0.1263
     27 C         139.5073  140.2961  164.9695 C.3     1  UNL1        0.1555
     28 C         138.3049  139.7339  164.2708 C.3     1  UNL1        0.1263
@<TRIPOS>BOND
     1    17    18    2
     2    18    19   am
     3    19    20    1
     4    20    21    1
     5    21    22    1
     6    22    23    1
     7    23    24    1
     8    18    25   am
     9    25    26    1
    10    26    27    1
    11    27    16    1
    12     1    16    1
    13     1     2    1
    14     2     3   ar
    15     3     4   ar
    16     4     5   ar
    17     5     6    1
    18     5     7   ar
    19     7     8   ar
    20     1     9    1
    21     9    10   ar
    22    10    11   ar
    23    11    12   ar
    24    12    13   ar
    25    13    14   ar
    26    14    15    1
    27    27    28    1
    28    24    19    1
    29    28    25    1
    30     8     2   ar
    31    14     9   ar
@<TRIPOS>MOLECULE
*****
 28 31 0 0 0
SMALL
GASTEIGER

@<TRIPOS>ATOM
      1 C         141.0714  142.3299  166.9300 C.3     1  UNL1        0.1620
      2 C         142.2908  142.0952  166.0887 C.ar    1  UNL1        0.0089
      3 C         142.5199  140.7537  165.4578 C.ar    1  UNL1       -0.0007
      4 C         143.7393  140.5190  164.6164 C.ar    1  UNL1        0.0112
      5 C         144.7297  141.6257  164.4060 C.ar    1  UNL1        0.0577
      6 CL        145.9491  141.3909  163.5646 Cl      1  UNL1       -0.0822
      7 C         144.5007  142.9671  165.0369 C.ar    1  UNL1        0.0112
      8 C         143.2812  143.2019  165.8782 C.ar    1  UNL1       -0.0007
      9 C         140.9839  141.7379  168.3055 C.ar    1  UNL1        0.0372
     10 C         141.7474  142.3571  169.4385 C.ar    1  UNL1        0.0023
     11 C         141.6599  141.7651  170.8139 C.ar    1  UNL1        0.0205
     12 C         140.8088  140.5540  171.0564 C.ar    1  UNL1        0.0998
     13 N         140.0453  139.9348  169.9234 N.ar    1  UNL1       -0.2327
     14 C         140.1328  140.5268  168.5480 C.ar    1  UNL1        0.1369
     15 CL        139.3693  139.9077  167.4150 Cl      1  UNL1       -0.0616
     16 O         139.9395  143.1567  166.3959 O.3     1  UNL1       -0.3463
     17 O         139.7365  145.1110  160.7126 O.2     1  UNL1       -0.2523
     18 C         139.3954  143.7936  161.3436 C.2     1  UNL1        0.3073
     19 N         138.8949  142.6627  160.4946 N.am    1  UNL1       -0.2640
     20 C         138.7355  142.8493  159.0148 C.3     1  UNL1        0.0949
     21 C         138.2350  141.7184  158.1660 C.3     1  UNL1        0.0216
     22 C         137.8939  140.4010  158.7969 C.3     1  UNL1        0.0035
     23 C         138.0532  140.2144  160.2767 C.3     1  UNL1        0.0216
     24 C         138.5537  141.3453  161.1255 C.3     1  UNL1        0.0949
     25 N         139.5547  143.6070  162.8233 N.am    1  UNL1       -0.2589
     26 C         139.3238  142.4756  163.7807 C.3     1  UNL1        0.1263
     27 C         139.7801  143.3432  164.9161 C.3     1  UNL1        0.1555
     28 C         140.0110  144.4746  163.9587 C.3     1  UNL1        0.1263
@<TRIPOS>BOND
     1    17    18    2
     2    18    19   am
     3    19    20    1
     4    20    21    1
     5    21    22    1
     6    22    23    1
     7    23    24    1
     8    18    25   am
     9    25    26    1
    10    26    27    1
    11    27    16    1
    12     1    16    1
    13     1     2    1
    14     2     3   ar
    15     3     4   ar
    16     4     5   ar
    17     5     6    1
    18     5     7   ar
    19     7     8   ar
    20     1     9    1
    21     9    10   ar
    22    10    11   ar
    23    11    12   ar
    24    12    13   ar
    25    13    14   ar
    26    14    15    1
    27    27    28    1
    28    24    19    1
    29    28    25    1
    30     8     2   ar
    31    14     9   ar
@<TRIPOS>MOLECULE
*****
 28 31 0 0 0
SMALL
GASTEIGER

@<TRIPOS>ATOM
      1 C         140.9746  142.2204  166.8314 C.3     1  UNL1        0.1620
      2 C         142.2202  142.0244  166.0190 C.ar    1  UNL1        0.0089
      3 C         143.0153  143.2132  165.5666 C.ar    1  UNL1       -0.0007
      4 C         144.2609  143.0172  164.7542 C.ar    1  UNL1        0.0112
      5 C         144.7113  141.6324  164.3940 C.ar    1  UNL1        0.0577
      6 CL        145.9569  141.4364  163.5816 Cl      1  UNL1       -0.0822
      7 C         143.9162  140.4437  164.8464 C.ar    1  UNL1        0.0112
      8 C         142.6705  140.6397  165.6589 C.ar    1  UNL1       -0.0007
      9 C         140.9052  141.6979  168.2358 C.ar    1  UNL1        0.0372
     10 C         141.6470  142.3996  169.3346 C.ar    1  UNL1        0.0023
     11 C         141.5776  141.8771  170.7389 C.ar    1  UNL1        0.0205
     12 C         140.7664  140.6529  171.0444 C.ar    1  UNL1        0.0998
     13 N         140.0246  139.9512  169.9456 N.ar    1  UNL1       -0.2327
     14 C         140.0940  140.4737  168.5413 C.ar    1  UNL1        0.1369
     15 CL        139.3523  139.7720  167.4425 Cl      1  UNL1       -0.0616
     16 O         139.7984  142.9389  166.2395 O.3     1  UNL1       -0.3463
     17 O         137.2933  140.7717  161.2207 O.2     1  UNL1       -0.2523
     18 C         138.2835  141.8716  161.4652 C.2     1  UNL1        0.3073
     19 N         138.8300  142.6589  160.3113 N.am    1  UNL1       -0.2640
     20 C         138.3863  142.3464  158.9129 C.3     1  UNL1        0.0949
     21 C         138.9328  143.1337  157.7591 C.3     1  UNL1        0.0216
     22 C         139.9229  144.2336  158.0035 C.3     1  UNL1        0.0035
     23 C         140.3666  144.5461  159.4019 C.3     1  UNL1        0.0216
     24 C         139.8201  143.7588  160.5557 C.3     1  UNL1        0.0949
     25 N         138.7272  142.1842  162.8635 N.am    1  UNL1       -0.2589
     26 C         139.6683  143.1757  163.4810 C.3     1  UNL1        0.1263
     27 C         139.3547  142.6263  164.8411 C.3     1  UNL1        0.1555
     28 C         138.4136  141.6348  164.2236 C.3     1  UNL1        0.1263
@<TRIPOS>BOND
     1    17    18    2
     2    18    19   am
     3    19    20    1
     4    20    21    1
     5    21    22    1
     6    22    23    1
     7    23    24    1
     8    18    25   am
     9    25    26    1
    10    26    27    1
    11    27    16    1
    12     1    16    1
    13     1     2    1
    14     2     3   ar
    15     3     4   ar
    16     4     5   ar
    17     5     6    1
    18     5     7   ar
    19     7     8   ar
    20     1     9    1
    21     9    10   ar
    22    10    11   ar
    23    11    12   ar
    24    12    13   ar
    25    13    14   ar
    26    14    15    1
    27    27    28    1
    28    24    19    1
    29    28    25    1
    30     8     2   ar
    31    14     9   ar
@<TRIPOS>MOLECULE
*****
 28 31 0 0 0
SMALL
GASTEIGER

@<TRIPOS>ATOM
      1 C         139.5574  141.7993  165.4964 C.3     1  UNL1        0.1620
      2 C         139.9979  141.6480  166.9222 C.ar    1  UNL1        0.0089
      3 C         140.4736  142.8448  167.6912 C.ar    1  UNL1       -0.0007
      4 C         140.9141  142.6936  169.1171 C.ar    1  UNL1        0.0112
      5 C         140.8790  141.3455  169.7740 C.ar    1  UNL1        0.0577
      6 CL        141.3195  141.1943  171.1998 Cl      1  UNL1       -0.0822
      7 C         140.4033  140.1487  169.0050 C.ar    1  UNL1        0.0112
      8 C         139.9628  140.3000  167.5791 C.ar    1  UNL1       -0.0007
      9 C         140.0922  142.9249  164.6615 C.ar    1  UNL1        0.0372
     10 C         141.5149  142.8966  164.1872 C.ar    1  UNL1        0.0023
     11 C         142.0496  144.0222  163.3523 C.ar    1  UNL1        0.0205
     12 C         141.1617  145.1762  162.9919 C.ar    1  UNL1        0.0998
     13 N         139.7390  145.2045  163.4663 N.ar    1  UNL1       -0.2327
     14 C         139.2042  144.0789  164.3011 C.ar    1  UNL1        0.1369
     15 CL        137.7815  144.1072  164.7755 Cl      1  UNL1       -0.0616
     16 O         138.5821  140.8249  164.9054 O.3     1  UNL1       -0.3463
     17 O         137.6887  139.9339  159.0259 O.2     1  UNL1       -0.2523
     18 C         138.8468  139.6352  159.9312 C.2     1  UNL1        0.3073
     19 N         140.0825  138.9880  159.3795 N.am    1  UNL1       -0.2640
     20 C         140.1601  138.6396  157.9226 C.3     1  UNL1        0.0949
     21 C         141.3957  137.9925  157.3710 C.3     1  UNL1        0.0216
     22 C         142.5539  137.6938  158.2763 C.3     1  UNL1        0.0035
     23 C         142.4763  138.0422  159.7332 C.3     1  UNL1        0.0216
     24 C         141.2407  138.6893  160.2848 C.3     1  UNL1        0.0949
     25 N         138.7693  139.9836  161.3880 N.am    1  UNL1       -0.2589
     26 C         139.6918  139.8439  162.5626 C.3     1  UNL1        0.1263
     27 C         138.6597  140.4764  163.4484 C.3     1  UNL1        0.1555
     28 C         137.7372  140.6162  162.2739 C.3     1  UNL1        0.1263
@<TRIPOS>BOND
     1    17    18    2
     2    18    19   am
     3    19    20    1
     4    20    21    1
     5    21    22    1
     6    22    23    1
     7    23    24    1
     8    18    25   am
     9    25    26    1
    10    26    27    1
    11    27    16    1
    12     1    16    1
    13     1     2    1
    14     2     3   ar
    15     3     4   ar
    16     4     5   ar
    17     5     6    1
    18     5     7   ar
    19     7     8   ar
    20     1     9    1
    21     9    10   ar
    22    10    11   ar
    23    11    12   ar
    24    12    13   ar
    25    13    14   ar
    26    14    15    1
    27    27    28    1
    28    24    19    1
    29    28    25    1
    30     8     2   ar
    31    14     9   ar
@<TRIPOS>MOLECULE
*****
 28 31 0 0 0
SMALL
GASTEIGER

@<TRIPOS>ATOM
      1 C         141.3149  141.2018  166.6430 C.3     1  UNL1        0.1620
      2 C         142.0010  142.2454  165.8124 C.ar    1  UNL1        0.0089
      3 C         141.1959  143.1405  164.9176 C.ar    1  UNL1       -0.0007
      4 C         141.8820  144.1842  164.0870 C.ar    1  UNL1        0.0112
      5 C         143.3733  144.3328  164.1511 C.ar    1  UNL1        0.0577
      6 CL        144.0595  145.3765  163.3205 Cl      1  UNL1       -0.0822
      7 C         144.1784  143.4377  165.0459 C.ar    1  UNL1        0.0112
      8 C         143.4922  142.3940  165.8765 C.ar    1  UNL1       -0.0007
      9 C         141.1872  141.3879  168.1259 C.ar    1  UNL1        0.0372
     10 C         140.3573  142.5118  168.6720 C.ar    1  UNL1        0.0023
     11 C         140.2296  142.6979  170.1549 C.ar    1  UNL1        0.0205
     12 C         140.9319  141.7602  171.0917 C.ar    1  UNL1        0.0998
     13 N         141.7618  140.6364  170.5456 N.ar    1  UNL1       -0.2327
     14 C         141.8894  140.4503  169.0627 C.ar    1  UNL1        0.1369
     15 CL        142.7194  139.3264  168.5166 Cl      1  UNL1       -0.0616
     16 O         140.7564  139.9719  165.9907 O.3     1  UNL1       -0.3463
     17 O         144.1710  137.7465  161.5693 O.2     1  UNL1       -0.2523
     18 C         142.7643  138.2665  161.5988 C.2     1  UNL1        0.3073
     19 N         141.9457  138.2870  160.3420 N.am    1  UNL1       -0.2640
     20 C         142.5338  137.7875  159.0557 C.3     1  UNL1        0.0949
     21 C         141.7152  137.8080  157.7990 C.3     1  UNL1        0.0216
     22 C         140.3086  138.3280  157.8285 C.3     1  UNL1        0.0035
     23 C         139.7205  138.8275  159.1148 C.3     1  UNL1        0.0216
     24 C         140.5390  138.8070  160.3716 C.3     1  UNL1        0.0949
     25 N         142.1762  138.7660  162.8851 N.am    1  UNL1       -0.2589
     26 C         140.8519  139.3398  163.2937 C.3     1  UNL1        0.1263
     27 C         141.3445  139.4724  164.7043 C.3     1  UNL1        0.1555
     28 C         142.6688  138.8985  164.2957 C.3     1  UNL1        0.1263
@<TRIPOS>BOND
     1    17    18    2
     2    18    19   am
     3    19    20    1
     4    20    21    1
     5    21    22    1
     6    22    23    1
     7    23    24    1
     8    18    25   am
     9    25    26    1
    10    26    27    1
    11    27    16    1
    12     1    16    1
    13     1     2    1
    14     2     3   ar
    15     3     4   ar
    16     4     5   ar
    17     5     6    1
    18     5     7   ar
    19     7     8   ar
    20     1     9    1
    21     9    10   ar
    22    10    11   ar
    23    11    12   ar
    24    12    13   ar
    25    13    14   ar
    26    14    15    1
    27    27    28    1
    28    24    19    1
    29    28    25    1
    30     8     2   ar
    31    14     9   ar
@<TRIPOS>MOLECULE
*****
 28 31 0 0 0
SMALL
GASTEIGER

@<TRIPOS>ATOM
      1 C         139.6421  140.8309  165.6605 C.3     1  UNL1        0.1620
      2 C         139.9170  141.1330  167.1038 C.ar    1  UNL1        0.0089
      3 C         139.5643  140.1287  168.1606 C.ar    1  UNL1       -0.0007
      4 C         139.8392  140.4308  169.6039 C.ar    1  UNL1        0.0112
      5 C         140.4667  141.7373  169.9905 C.ar    1  UNL1        0.0577
      6 CL        140.7415  142.0394  171.4338 Cl      1  UNL1       -0.0822
      7 C         140.8193  142.7416  168.9336 C.ar    1  UNL1        0.0112
      8 C         140.5445  142.4395  167.4903 C.ar    1  UNL1       -0.0007
      9 C         140.4438  139.7822  164.9479 C.ar    1  UNL1        0.0372
     10 C         141.7953  140.1203  164.3920 C.ar    1  UNL1        0.0023
     11 C         142.5968  139.0717  163.6794 C.ar    1  UNL1        0.0205
     12 C         142.0468  137.6850  163.5227 C.ar    1  UNL1        0.0998
     13 N         140.6953  137.3469  164.0785 N.ar    1  UNL1       -0.2327
     14 C         139.8938  138.3955  164.7911 C.ar    1  UNL1        0.1369
     15 CL        138.5422  138.0575  165.3471 Cl      1  UNL1       -0.0616
     16 O         138.5657  141.5774  164.9298 O.3     1  UNL1       -0.3463
     17 O         139.2372  146.3302  161.3075 O.2     1  UNL1       -0.2523
     18 C         139.8118  144.9449  161.2780 C.2     1  UNL1        0.3073
     19 N         140.7514  144.5460  160.1788 N.am    1  UNL1       -0.2640
     20 C         141.1164  145.5322  159.1093 C.3     1  UNL1        0.0949
     21 C         142.0559  145.1333  158.0102 C.3     1  UNL1        0.0216
     22 C         142.6305  143.7480  157.9807 C.3     1  UNL1        0.0035
     23 C         142.2655  142.7617  159.0502 C.3     1  UNL1        0.0216
     24 C         141.3260  143.1607  160.1493 C.3     1  UNL1        0.0949
     25 N         139.4468  143.9586  162.3475 N.am    1  UNL1       -0.2589
     26 C         139.8069  142.5328  162.6431 C.3     1  UNL1        0.1263
     27 C         138.9307  142.5637  163.8601 C.3     1  UNL1        0.1555
     28 C         138.5706  143.9896  163.5646 C.3     1  UNL1        0.1263
@<TRIPOS>BOND
     1    17    18    2
     2    18    19   am
     3    19    20    1
     4    20    21    1
     5    21    22    1
     6    22    23    1
     7    23    24    1
     8    18    25   am
     9    25    26    1
    10    26    27    1
    11    27    16    1
    12     1    16    1
    13     1     2    1
    14     2     3   ar
    15     3     4   ar
    16     4     5   ar
    17     5     6    1
    18     5     7   ar
    19     7     8   ar
    20     1     9    1
    21     9    10   ar
    22    10    11   ar
    23    11    12   ar
    24    12    13   ar
    25    13    14   ar
    26    14    15    1
    27    27    28    1
    28    24    19    1
    29    28    25    1
    30     8     2   ar
    31    14     9   ar
