@<TRIPOS>MOLECULE
*****
 30 33 0 0 0
SMALL
GASTEIGER

@<TRIPOS>ATOM
      1 C         139.4065  140.0920  167.2417 C.2     1  UNL1       -0.0160
      2 C         138.4888  139.6814  168.3549 C.2     1  UNL1       -0.0023
      3 C         138.8383  140.0124  169.7755 C.2     1  UNL1        0.0203
      4 C         140.1053  140.7540  170.0830 C.2     1  UNL1        0.1008
      5 N         140.7093  141.2161  171.3760 N.2     1  UNL1       -0.1481
      6 N         142.0003  141.9123  171.0618 N.2     1  UNL1       -0.1436
      7 C         142.1942  141.8805  169.5747 C.2     1  UNL1        0.1537
      8 C         141.0230  141.1646  168.9698 C.2     1  UNL1        0.0255
      9 C         140.6736  140.8336  167.5492 C.3     1  UNL1        0.0560
     10 C         137.9349  140.4114  163.5698 C.ar    1  UNL1        0.1574
     11 C         138.3584  139.0990  162.9795 C.ar    1  UNL1        0.1356
     12 N         139.1312  138.1176  163.8100 N.ar    1  UNL1       -0.2392
     13 C         139.4806  138.4487  165.2307 C.ar    1  UNL1        0.0988
     14 C         139.0571  139.7610  165.8210 C.ar    1  UNL1        0.0186
     15 C         138.2843  140.7424  164.9905 C.ar    1  UNL1        0.0398
     16 O         137.1621  141.3928  162.7394 O.3     1  UNL1       -0.4776
     17 C         137.7290  143.9072  163.0657 C.3     1  UNL1        0.0472
     18 C         137.8229  142.6491  162.2544 C.3     1  UNL1        0.1662
     19 C         138.5776  142.6472  160.9581 C.3     1  UNL1        0.0472
     20 C         143.3553  142.4623  168.8243 C.2     1  UNL1        0.2651
     21 O         144.5881  142.8899  169.5641 O.2     1  UNL1       -0.2684
     22 N         143.2837  142.6166  167.3340 N.am    1  UNL1       -0.2996
     23 H         142.4746  142.3359  166.8484 H       1  UNL1        0.1498
     24 C         144.4449  143.1984  166.5835 C.3     1  UNL1        0.0899
     25 C         144.4259  143.2360  165.0841 C.3     1  UNL1        0.0246
     26 C         143.8774  144.4362  164.3709 C.3     1  UNL1        0.0338
     27 C         143.8583  144.4738  162.8714 C.3     1  UNL1        0.1422
     28 O         144.3878  143.3113  162.0853 O.3     1  UNL1       -0.3538
     29 C         144.9363  142.1111  162.7985 C.3     1  UNL1        0.1422
     30 C         144.9554  142.0734  164.2980 C.3     1  UNL1        0.0338
@<TRIPOS>BOND
     1    17    18    1
     2    18    19    1
     3    18    16    1
     4    16    10    1
     5    10    11   ar
     6    11    12   ar
     7    12    13   ar
     8    13    14   ar
     9    14     1    1
    10     1     2    2
    11     2     3    1
    12     3     4    2
    13     4     5    1
    14     5     6    2
    15     6     7    1
    16     7    20    1
    17    20    21    2
    18    20    22   am
    19    22    24    1
    20    24    25    1
    21    25    26    1
    22    26    27    1
    23    27    28    1
    24    28    29    1
    25    29    30    1
    26     7     8    2
    27     8     9    1
    28    14    15   ar
    29    15    10   ar
    30     9     1    1
    31     8     4    1
    32    30    25    1
    33    22    23    1
@<TRIPOS>MOLECULE
*****
 30 33 0 0 0
SMALL
GASTEIGER

@<TRIPOS>ATOM
      1 C         142.7104  141.8474  167.4262 C.2     1  UNL1       -0.0160
      2 C         143.0868  142.4757  168.7351 C.2     1  UNL1       -0.0023
      3 C         142.2122  142.2831  169.9384 C.2     1  UNL1        0.0203
      4 C         140.9612  141.4622  169.8327 C.2     1  UNL1        0.1008
      5 N         139.9104  141.0999  170.8400 N.2     1  UNL1       -0.1481
      6 N         138.8845  140.2478  170.1535 N.2     1  UNL1       -0.1436
      7 C         139.3013  140.0834  168.7220 C.2     1  UNL1        0.1537
      8 C         140.5848  140.8340  168.5237 C.2     1  UNL1        0.0255
      9 C         141.4594  141.0265  167.3204 C.3     1  UNL1        0.0560
     10 C         144.6594  141.1058  164.0495 C.ar    1  UNL1        0.1574
     11 C         145.3342  142.4250  163.8160 C.ar    1  UNL1        0.1356
     12 N         145.1343  143.5516  164.7859 N.ar    1  UNL1       -0.2392
     13 C         144.2597  143.3591  165.9893 C.ar    1  UNL1        0.0988
     14 C         143.5850  142.0399  166.2228 C.ar    1  UNL1        0.0186
     15 C         143.7848  140.9133  165.2529 C.ar    1  UNL1        0.0398
     16 O         144.8592  139.9791  163.0796 O.3     1  UNL1       -0.4776
     17 C         142.7055  140.6889  161.8115 C.3     1  UNL1        0.0472
     18 C         143.8819  139.7703  161.9609 C.3     1  UNL1        0.1662
     19 C         144.0811  138.6430  160.9917 C.3     1  UNL1        0.0472
     20 C         138.5641  139.3050  167.6728 C.2     1  UNL1        0.2651
     21 O         137.3928  138.4506  168.0574 O.2     1  UNL1       -0.2684
     22 N         138.9982  139.3812  166.2390 N.am    1  UNL1       -0.2996
     23 H         139.7669  139.9420  165.9865 H       1  UNL1        0.1498
     24 C         138.2610  138.6028  165.1899 C.3     1  UNL1        0.0899
     25 C         138.9319  138.2759  163.8887 C.3     1  UNL1        0.0246
     26 C         138.2027  138.4872  162.5950 C.3     1  UNL1        0.0338
     27 C         138.8735  138.1602  161.2938 C.3     1  UNL1        0.1422
     28 O         140.2735  137.6219  161.2863 O.3     1  UNL1       -0.3538
     29 C         141.0027  137.4106  162.5800 C.3     1  UNL1        0.1422
     30 C         140.3319  137.7376  163.8812 C.3     1  UNL1        0.0338
@<TRIPOS>BOND
     1    17    18    1
     2    18    19    1
     3    18    16    1
     4    16    10    1
     5    10    11   ar
     6    11    12   ar
     7    12    13   ar
     8    13    14   ar
     9    14     1    1
    10     1     2    2
    11     2     3    1
    12     3     4    2
    13     4     5    1
    14     5     6    2
    15     6     7    1
    16     7    20    1
    17    20    21    2
    18    20    22   am
    19    22    24    1
    20    24    25    1
    21    25    26    1
    22    26    27    1
    23    27    28    1
    24    28    29    1
    25    29    30    1
    26     7     8    2
    27     8     9    1
    28    14    15   ar
    29    15    10   ar
    30     9     1    1
    31     8     4    1
    32    30    25    1
    33    22    23    1
@<TRIPOS>MOLECULE
*****
 30 33 0 0 0
SMALL
GASTEIGER

@<TRIPOS>ATOM
      1 C         139.1048  139.2745  165.4729 C.2     1  UNL1       -0.0160
      2 C         138.0027  138.6676  166.2897 C.2     1  UNL1       -0.0023
      3 C         137.9240  138.9395  167.7627 C.2     1  UNL1        0.0203
      4 C         138.9472  139.8183  168.4189 C.2     1  UNL1        0.1008
      5 N         139.1253  140.2626  169.8406 N.2     1  UNL1       -0.1481
      6 N         140.3374  141.1440  169.9024 N.2     1  UNL1       -0.1436
      7 C         140.9084  141.2445  168.5190 C.2     1  UNL1        0.1537
      8 C         140.0493  140.4252  167.6022 C.2     1  UNL1        0.0255
      9 C         140.1280  140.1533  166.1292 C.3     1  UNL1        0.0560
     10 C         140.4390  137.9910  161.9626 C.ar    1  UNL1        0.1574
     11 C         139.3412  138.4589  161.0537 C.ar    1  UNL1        0.1356
     12 N         138.1646  139.1987  161.6179 N.ar    1  UNL1       -0.2392
     13 C         138.0858  139.4706  163.0910 C.ar    1  UNL1        0.0988
     14 C         139.1836  139.0026  163.9998 C.ar    1  UNL1        0.0186
     15 C         140.3601  138.2629  163.4356 C.ar    1  UNL1        0.0398
     16 O         141.6156  137.2512  161.3984 O.3     1  UNL1       -0.4776
     17 C         142.7948  138.4599  159.4239 C.3     1  UNL1        0.0472
     18 C         142.7892  138.0113  160.8552 C.3     1  UNL1        0.1662
     19 C         143.9571  138.3228  161.7434 C.3     1  UNL1        0.0472
     20 C         142.1250  142.0270  168.1220 C.2     1  UNL1        0.2651
     21 O         142.9186  142.7592  169.1632 O.2     1  UNL1       -0.2684
     22 N         142.5481  142.0773  166.6838 N.am    1  UNL1       -0.2996
     23 H         142.0273  141.5967  166.0004 H       1  UNL1        0.1498
     24 C         143.7648  142.8597  166.2869 C.3     1  UNL1        0.0899
     25 C         144.1603  142.9500  164.8427 C.3     1  UNL1        0.0246
     26 C         144.9045  141.8191  164.1969 C.3     1  UNL1        0.0338
     27 C         145.3000  141.9093  162.7527 C.3     1  UNL1        0.1422
     28 O         144.9513  143.1304  161.9545 O.3     1  UNL1       -0.3538
     29 C         144.2071  144.2613  162.6004 C.3     1  UNL1        0.1422
     30 C         143.8115  144.1711  164.0445 C.3     1  UNL1        0.0338
@<TRIPOS>BOND
     1    17    18    1
     2    18    19    1
     3    18    16    1
     4    16    10    1
     5    10    11   ar
     6    11    12   ar
     7    12    13   ar
     8    13    14   ar
     9    14     1    1
    10     1     2    2
    11     2     3    1
    12     3     4    2
    13     4     5    1
    14     5     6    2
    15     6     7    1
    16     7    20    1
    17    20    21    2
    18    20    22   am
    19    22    24    1
    20    24    25    1
    21    25    26    1
    22    26    27    1
    23    27    28    1
    24    28    29    1
    25    29    30    1
    26     7     8    2
    27     8     9    1
    28    14    15   ar
    29    15    10   ar
    30     9     1    1
    31     8     4    1
    32    30    25    1
    33    22    23    1
@<TRIPOS>MOLECULE
*****
 30 33 0 0 0
SMALL
GASTEIGER

@<TRIPOS>ATOM
      1 C         140.7298  142.5503  167.1857 C.2     1  UNL1       -0.0160
      2 C         140.1248  143.6596  167.9940 C.2     1  UNL1       -0.0023
      3 C         140.1998  143.6233  169.4916 C.2     1  UNL1        0.0203
      4 C         140.8798  142.4777  170.1810 C.2     1  UNL1        0.1008
      5 N         141.1074  142.1716  171.6317 N.2     1  UNL1       -0.1481
      6 N         141.8531  140.8731  171.7200 N.2     1  UNL1       -0.1436
      7 C         142.0863  140.3767  170.3238 C.2     1  UNL1        0.1537
      8 C         141.4848  141.3684  169.3727 C.2     1  UNL1        0.0255
      9 C         141.4098  141.4047  167.8750 C.3     1  UNL1        0.0560
     10 C         141.2144  141.5307  163.3810 C.ar    1  UNL1        0.1574
     11 C         140.5050  142.6590  162.6925 C.ar    1  UNL1        0.1356
     12 N         139.8706  143.7510  163.5019 N.ar    1  UNL1       -0.2392
     13 C         139.9455  143.7148  164.9996 C.ar    1  UNL1        0.0988
     14 C         140.6549  142.5865  165.6879 C.ar    1  UNL1        0.0186
     15 C         141.2893  141.4945  164.8786 C.ar    1  UNL1        0.0398
     16 O         141.8488  140.4387  162.5716 O.3     1  UNL1       -0.4776
     17 C         141.9320  138.0161  163.5068 C.3     1  UNL1        0.0472
     18 C         142.5996  139.3361  163.2578 C.3     1  UNL1        0.1662
     19 C         144.0178  139.5536  163.6950 C.3     1  UNL1        0.0472
     20 C         142.7964  139.1108  169.9453 C.2     1  UNL1        0.2651
     21 O         142.9669  138.7501  168.4993 O.2     1  UNL1       -0.2684
     22 N         143.3361  138.2056  171.0127 N.am    1  UNL1       -0.2996
     23 H         143.2242  138.4423  171.9617 H       1  UNL1        0.1498
     24 C         144.0462  136.9397  170.6341 C.3     1  UNL1        0.0899
     25 C         144.9181  136.2408  171.6348 C.3     1  UNL1        0.0246
     26 C         144.7280  134.7772  171.9024 C.3     1  UNL1        0.0338
     27 C         145.5999  134.0782  172.9031 C.3     1  UNL1        0.1422
     28 O         146.6619  134.8430  173.6361 O.3     1  UNL1       -0.3538
     29 C         146.8520  136.3066  173.3685 C.3     1  UNL1        0.1422
     30 C         145.9801  137.0056  172.3678 C.3     1  UNL1        0.0338
@<TRIPOS>BOND
     1    17    18    1
     2    18    19    1
     3    18    16    1
     4    16    10    1
     5    10    11   ar
     6    11    12   ar
     7    12    13   ar
     8    13    14   ar
     9    14     1    1
    10     1     2    2
    11     2     3    1
    12     3     4    2
    13     4     5    1
    14     5     6    2
    15     6     7    1
    16     7    20    1
    17    20    21    2
    18    20    22   am
    19    22    24    1
    20    24    25    1
    21    25    26    1
    22    26    27    1
    23    27    28    1
    24    28    29    1
    25    29    30    1
    26     7     8    2
    27     8     9    1
    28    14    15   ar
    29    15    10   ar
    30     9     1    1
    31     8     4    1
    32    30    25    1
    33    22    23    1
@<TRIPOS>MOLECULE
*****
 30 33 0 0 0
SMALL
GASTEIGER

@<TRIPOS>ATOM
      1 C         140.9049  142.2339  166.6253 C.2     1  UNL1       -0.0160
      2 C         140.2628  143.3885  167.3356 C.2     1  UNL1       -0.0023
      3 C         140.2771  143.4487  168.8343 C.2     1  UNL1        0.0203
      4 C         140.9337  142.3544  169.6226 C.2     1  UNL1        0.1008
      5 N         141.1036  142.1434  171.0980 N.2     1  UNL1       -0.1481
      6 N         141.8507  140.8585  171.2995 N.2     1  UNL1       -0.1436
      7 C         142.1426  140.2753  169.9486 C.2     1  UNL1        0.1537
      8 C         141.5758  141.1999  168.9123 C.2     1  UNL1        0.0255
      9 C         141.5615  141.1396  167.4136 C.3     1  UNL1        0.0560
     10 C         141.3030  143.3066  162.8251 C.ar    1  UNL1        0.1574
     11 C         140.8620  142.0532  162.1290 C.ar    1  UNL1        0.1356
     12 N         140.4353  140.8600  162.9317 N.ar    1  UNL1       -0.2392
     13 C         140.4496  140.9203  164.4305 C.ar    1  UNL1        0.0988
     14 C         140.8906  142.1737  165.1265 C.ar    1  UNL1        0.0186
     15 C         141.3173  143.3668  164.3238 C.ar    1  UNL1        0.0398
     16 O         141.7297  144.4998  162.0224 O.3     1  UNL1       -0.4776
     17 C         140.7740  145.3404  159.7575 C.3     1  UNL1        0.0472
     18 C         140.7118  145.2906  161.2553 C.3     1  UNL1        0.1662
     19 C         139.6317  146.0317  161.9861 C.3     1  UNL1        0.0472
     20 C         142.8730  138.9928  169.6810 C.2     1  UNL1        0.2651
     21 O         143.2630  138.6302  168.2787 O.2     1  UNL1       -0.2684
     22 N         143.2135  138.0728  170.8158 N.am    1  UNL1       -0.2996
     23 H         142.9576  138.3107  171.7362 H       1  UNL1        0.1498
     24 C         143.9439  136.7902  170.5482 C.3     1  UNL1        0.0899
     25 C         144.8457  136.2081  171.5959 C.3     1  UNL1        0.0246
     26 C         145.8195  137.0890  172.3209 C.3     1  UNL1        0.0338
     27 C         146.7215  136.5069  173.3687 C.3     1  UNL1        0.1422
     28 O         146.6495  135.0438  173.6914 O.3     1  UNL1       -0.3538
     29 C         145.6757  134.1629  172.9664 C.3     1  UNL1        0.1422
     30 C         144.7738  134.7450  171.9186 C.3     1  UNL1        0.0338
@<TRIPOS>BOND
     1    17    18    1
     2    18    19    1
     3    18    16    1
     4    16    10    1
     5    10    11   ar
     6    11    12   ar
     7    12    13   ar
     8    13    14   ar
     9    14     1    1
    10     1     2    2
    11     2     3    1
    12     3     4    2
    13     4     5    1
    14     5     6    2
    15     6     7    1
    16     7    20    1
    17    20    21    2
    18    20    22   am
    19    22    24    1
    20    24    25    1
    21    25    26    1
    22    26    27    1
    23    27    28    1
    24    28    29    1
    25    29    30    1
    26     7     8    2
    27     8     9    1
    28    14    15   ar
    29    15    10   ar
    30     9     1    1
    31     8     4    1
    32    30    25    1
    33    22    23    1
@<TRIPOS>MOLECULE
*****
 30 33 0 0 0
SMALL
GASTEIGER

@<TRIPOS>ATOM
      1 C         142.6603  142.0146  166.1193 C.2     1  UNL1       -0.0160
      2 C         143.1683  142.5104  167.4407 C.2     1  UNL1       -0.0023
      3 C         142.4826  142.0994  168.7099 C.2     1  UNL1        0.0203
      4 C         141.2888  141.1927  168.6577 C.2     1  UNL1        0.1008
      5 N         140.4138  140.6224  169.7343 N.2     1  UNL1       -0.1481
      6 N         139.3650  139.7741  169.0783 N.2     1  UNL1       -0.1436
      7 C         139.5918  139.8201  167.5962 C.2     1  UNL1        0.1537
      8 C         140.7808  140.6969  167.3363 C.2     1  UNL1        0.0255
      9 C         141.4666  141.1078  166.0671 C.3     1  UNL1        0.0560
     10 C         143.3586  143.7911  162.6399 C.ar    1  UNL1        0.1574
     11 C         144.7176  143.2473  162.3116 C.ar    1  UNL1        0.1356
     12 N         145.3908  142.2927  163.2526 N.ar    1  UNL1       -0.2392
     13 C         144.7050  141.8818  164.5219 C.ar    1  UNL1        0.0988
     14 C         143.3461  142.4255  164.8501 C.ar    1  UNL1        0.0186
     15 C         142.6729  143.3801  163.9091 C.ar    1  UNL1        0.0398
     16 O         142.6854  144.7457  161.6989 O.3     1  UNL1       -0.4776
     17 C         140.5736  143.5356  160.7900 C.3     1  UNL1        0.0472
     18 C         141.1979  144.6921  161.5131 C.3     1  UNL1        0.1662
     19 C         140.3347  145.7948  162.0504 C.3     1  UNL1        0.0472
     20 C         138.7734  139.1135  166.5566 C.2     1  UNL1        0.2651
     21 O         137.3892  138.6390  166.8867 O.2     1  UNL1       -0.2684
     22 N         139.3390  138.8814  165.1869 N.am    1  UNL1       -0.2996
     23 H         140.2475  139.1928  164.9702 H       1  UNL1        0.1498
     24 C         138.5206  138.1748  164.1473 C.3     1  UNL1        0.0899
     25 C         138.5550  138.6401  162.7217 C.3     1  UNL1        0.0246
     26 C         137.7565  139.8395  162.3048 C.3     1  UNL1        0.0338
     27 C         137.7908  140.3050  160.8793 C.3     1  UNL1        0.1422
     28 O         138.6237  139.5710  159.8706 O.3     1  UNL1       -0.3538
     29 C         139.4223  138.3716  160.2875 C.3     1  UNL1        0.1422
     30 C         139.3879  137.9061  161.7131 C.3     1  UNL1        0.0338
@<TRIPOS>BOND
     1    17    18    1
     2    18    19    1
     3    18    16    1
     4    16    10    1
     5    10    11   ar
     6    11    12   ar
     7    12    13   ar
     8    13    14   ar
     9    14     1    1
    10     1     2    2
    11     2     3    1
    12     3     4    2
    13     4     5    1
    14     5     6    2
    15     6     7    1
    16     7    20    1
    17    20    21    2
    18    20    22   am
    19    22    24    1
    20    24    25    1
    21    25    26    1
    22    26    27    1
    23    27    28    1
    24    28    29    1
    25    29    30    1
    26     7     8    2
    27     8     9    1
    28    14    15   ar
    29    15    10   ar
    30     9     1    1
    31     8     4    1
    32    30    25    1
    33    22    23    1
@<TRIPOS>MOLECULE
*****
 30 33 0 0 0
SMALL
GASTEIGER

@<TRIPOS>ATOM
      1 C         141.6145  142.4881  159.9823 C.2     1  UNL1       -0.0160
      2 C         142.4913  142.6149  158.7719 C.2     1  UNL1       -0.0023
      3 C         143.1236  141.3939  158.1726 C.2     1  UNL1        0.0203
      4 C         142.8791  140.0460  158.7837 C.2     1  UNL1        0.1008
      5 N         143.3630  138.6745  158.4161 N.2     1  UNL1       -0.1481
      6 N         142.7853  137.7002  159.3994 N.2     1  UNL1       -0.1436
      7 C         141.9443  138.4694  160.3746 C.2     1  UNL1        0.1537
      8 C         142.0023  139.9192  159.9941 C.2     1  UNL1        0.0255
      9 C         141.3700  141.1403  160.5934 C.3     1  UNL1        0.0560
     10 C         140.2499  145.0683  162.6712 C.ar    1  UNL1        0.1574
     11 C         139.7175  146.1514  161.7803 C.ar    1  UNL1        0.1356
     12 N         139.8175  146.0133  160.2900 N.ar    1  UNL1       -0.2392
     13 C         140.4499  144.7922  159.6907 C.ar    1  UNL1        0.0988
     14 C         140.9822  143.7092  160.5816 C.ar    1  UNL1        0.0186
     15 C         140.8822  143.8473  162.0719 C.ar    1  UNL1        0.0398
     16 O         140.1499  145.2064  164.1615 O.3     1  UNL1       -0.4776
     17 C         139.9724  143.3607  165.9815 C.3     1  UNL1        0.0472
     18 C         139.3224  144.2356  164.9508 C.3     1  UNL1        0.1662
     19 C         137.8451  144.1397  164.7095 C.3     1  UNL1        0.0472
     20 C         141.1796  137.8906  161.5279 C.2     1  UNL1        0.2651
     21 O         139.6938  137.7107  161.4280 O.2     1  UNL1       -0.2684
     22 N         141.9007  137.4915  162.7813 N.am    1  UNL1       -0.2996
     23 H         142.8759  137.6096  162.8469 H       1  UNL1        0.1498
     24 C         141.1360  136.9126  163.9346 C.3     1  UNL1        0.0899
     25 C         140.4332  137.8206  164.8998 C.3     1  UNL1        0.0246
     26 C         138.9553  137.6846  165.1173 C.3     1  UNL1        0.0338
     27 C         138.2525  138.5925  166.0826 C.3     1  UNL1        0.1422
     28 O         139.0276  139.6365  166.8303 O.3     1  UNL1       -0.3538
     29 C         140.5055  139.7726  166.6128 C.3     1  UNL1        0.1422
     30 C         141.2083  138.8646  165.6476 C.3     1  UNL1        0.0338
@<TRIPOS>BOND
     1    17    18    1
     2    18    19    1
     3    18    16    1
     4    16    10    1
     5    10    11   ar
     6    11    12   ar
     7    12    13   ar
     8    13    14   ar
     9    14     1    1
    10     1     2    2
    11     2     3    1
    12     3     4    2
    13     4     5    1
    14     5     6    2
    15     6     7    1
    16     7    20    1
    17    20    21    2
    18    20    22   am
    19    22    24    1
    20    24    25    1
    21    25    26    1
    22    26    27    1
    23    27    28    1
    24    28    29    1
    25    29    30    1
    26     7     8    2
    27     8     9    1
    28    14    15   ar
    29    15    10   ar
    30     9     1    1
    31     8     4    1
    32    30    25    1
    33    22    23    1
@<TRIPOS>MOLECULE
*****
 30 33 0 0 0
SMALL
GASTEIGER

@<TRIPOS>ATOM
      1 C         140.1440  142.6296  166.5848 C.2     1  UNL1       -0.0160
      2 C         140.0692  143.3517  167.8974 C.2     1  UNL1       -0.0023
      3 C         140.8255  142.8314  169.0837 C.2     1  UNL1        0.0203
      4 C         141.6566  141.5891  168.9574 C.2     1  UNL1        0.1008
      5 N         142.5051  140.8444  169.9451 N.2     1  UNL1       -0.1481
      6 N         143.1043  139.6621  169.2429 N.2     1  UNL1       -0.1436
      7 C         142.6261  139.6761  167.8212 C.2     1  UNL1        0.1537
      8 C         141.7314  140.8671  167.6448 C.2     1  UNL1        0.0255
      9 C         140.9751  141.3873  166.4585 C.3     1  UNL1        0.0560
     10 C         137.8539  142.7247  163.3449 C.ar    1  UNL1        0.1574
     11 C         137.8750  144.1903  163.0258 C.ar    1  UNL1        0.1356
     12 N         138.6525  145.1356  163.8930 N.ar    1  UNL1       -0.2392
     13 C         139.4088  144.6153  165.0793 C.ar    1  UNL1        0.0988
     14 C         139.3877  143.1499  165.3984 C.ar    1  UNL1        0.0186
     15 C         138.6102  142.2046  164.5313 C.ar    1  UNL1        0.0398
     16 O         137.0765  141.7794  162.4777 O.3     1  UNL1       -0.4776
     17 C         138.6185  141.3374  160.4340 C.3     1  UNL1        0.0472
     18 C         137.7988  140.8201  161.5787 C.3     1  UNL1        0.1662
     19 C         137.7012  139.3436  161.8244 C.3     1  UNL1        0.0472
     20 C         142.9804  138.6750  166.7619 C.2     1  UNL1        0.2651
     21 O         144.1713  137.7811  166.9430 O.2     1  UNL1       -0.2684
     22 N         142.1439  138.5677  165.5214 N.am    1  UNL1       -0.2996
     23 H         141.3623  139.1544  165.4025 H       1  UNL1        0.1498
     24 C         142.4982  137.5665  164.4621 C.3     1  UNL1        0.0899
     25 C         142.4781  137.9655  163.0163 C.3     1  UNL1        0.0246
     26 C         141.1924  137.9242  162.2447 C.3     1  UNL1        0.0338
     27 C         141.1722  138.3231  160.7988 C.3     1  UNL1        0.1422
     28 O         142.4377  138.7634  160.1246 O.3     1  UNL1       -0.3538
     29 C         143.7233  138.8047  160.8962 C.3     1  UNL1        0.1422
     30 C         143.7436  138.4058  162.3420 C.3     1  UNL1        0.0338
@<TRIPOS>BOND
     1    17    18    1
     2    18    19    1
     3    18    16    1
     4    16    10    1
     5    10    11   ar
     6    11    12   ar
     7    12    13   ar
     8    13    14   ar
     9    14     1    1
    10     1     2    2
    11     2     3    1
    12     3     4    2
    13     4     5    1
    14     5     6    2
    15     6     7    1
    16     7    20    1
    17    20    21    2
    18    20    22   am
    19    22    24    1
    20    24    25    1
    21    25    26    1
    22    26    27    1
    23    27    28    1
    24    28    29    1
    25    29    30    1
    26     7     8    2
    27     8     9    1
    28    14    15   ar
    29    15    10   ar
    30     9     1    1
    31     8     4    1
    32    30    25    1
    33    22    23    1
@<TRIPOS>MOLECULE
*****
 30 33 0 0 0
SMALL
GASTEIGER

@<TRIPOS>ATOM
      1 C         139.1485  139.3531  165.1412 C.2     1  UNL1       -0.0160
      2 C         138.0558  138.6705  165.9091 C.2     1  UNL1       -0.0023
      3 C         137.9657  138.8404  167.3967 C.2     1  UNL1        0.0203
      4 C         138.9684  139.6928  168.1163 C.2     1  UNL1        0.1008
      5 N         139.1318  140.0432  169.5657 N.2     1  UNL1       -0.1481
      6 N         140.3256  140.9424  169.6934 N.2     1  UNL1       -0.1436
      7 C         140.9000  141.1477  168.3230 C.2     1  UNL1        0.1537
      8 C         140.0612  140.3754  167.3484 C.2     1  UNL1        0.0255
      9 C         140.1512  140.2056  165.8608 C.3     1  UNL1        0.0560
     10 C         140.0950  140.0061  161.3427 C.ar    1  UNL1        0.1574
     11 C         139.4188  138.8436  160.6782 C.ar    1  UNL1        0.1356
     12 N         138.6526  137.8510  161.5013 N.ar    1  UNL1       -0.2392
     13 C         138.5625  138.0208  162.9890 C.ar    1  UNL1        0.0988
     14 C         139.2386  139.1833  163.6535 C.ar    1  UNL1        0.0186
     15 C         140.0048  140.1759  162.8303 C.ar    1  UNL1        0.0398
     16 O         140.8612  140.9987  160.5196 O.3     1  UNL1       -0.4776
     17 C         138.9683  142.6992  159.9946 C.3     1  UNL1        0.0472
     18 C         140.3803  142.4157  160.4140 C.3     1  UNL1        0.1662
     19 C         141.3114  143.5491  160.7277 C.3     1  UNL1        0.0472
     20 C         142.1021  141.9793  167.9864 C.2     1  UNL1        0.2651
     21 O         142.7462  142.8284  169.0419 O.2     1  UNL1       -0.2684
     22 N         142.6602  141.9619  166.5941 N.am    1  UNL1       -0.2996
     23 H         142.2374  141.4046  165.9013 H       1  UNL1        0.1498
     24 C         143.8623  142.7934  166.2575 C.3     1  UNL1        0.0899
     25 C         144.1129  143.2094  164.8383 C.3     1  UNL1        0.0246
     26 C         144.7498  142.2502  163.8769 C.3     1  UNL1        0.0338
     27 C         145.0005  142.6662  162.4576 C.3     1  UNL1        0.1422
     28 O         144.6143  144.0414  161.9998 O.3     1  UNL1       -0.3538
     29 C         143.9774  145.0006  162.9612 C.3     1  UNL1        0.1422
     30 C         143.7267  144.5847  164.3805 C.3     1  UNL1        0.0338
@<TRIPOS>BOND
     1    17    18    1
     2    18    19    1
     3    18    16    1
     4    16    10    1
     5    10    11   ar
     6    11    12   ar
     7    12    13   ar
     8    13    14   ar
     9    14     1    1
    10     1     2    2
    11     2     3    1
    12     3     4    2
    13     4     5    1
    14     5     6    2
    15     6     7    1
    16     7    20    1
    17    20    21    2
    18    20    22   am
    19    22    24    1
    20    24    25    1
    21    25    26    1
    22    26    27    1
    23    27    28    1
    24    28    29    1
    25    29    30    1
    26     7     8    2
    27     8     9    1
    28    14    15   ar
    29    15    10   ar
    30     9     1    1
    31     8     4    1
    32    30    25    1
    33    22    23    1
