@<TRIPOS>MOLECULE
*****
 39 43 0 0 0
SMALL
GASTEIGER

@<TRIPOS>ATOM
      1 C         141.2444  139.4271  164.1092 C.ar    1  UNL1        0.0502
      2 C         140.5539  138.1925  163.6103 C.ar    1  UNL1        0.0143
      3 C         140.5893  137.8517  162.1499 C.ar    1  UNL1       -0.0030
      4 C         141.3151  138.7455  161.1885 C.ar    1  UNL1       -0.0223
      5 C         142.0056  139.9801  161.6874 C.ar    1  UNL1       -0.0034
      6 C         141.9703  140.3209  163.1478 C.ar    1  UNL1        0.0089
      7 C         141.3504  138.4046  159.7282 C.3     1  UNL1        0.0257
      8 C         142.5875  137.8057  159.1275 C.3     1  UNL1        0.0259
      9 C         142.6228  137.4649  157.6671 C.3     1  UNL1        0.0937
     10 N         141.4210  137.7230  156.8075 N.am    1  UNL1       -0.2792
     11 C         141.4563  137.3821  155.3472 C.2     1  UNL1        0.2301
     12 O         140.2544  137.6402  154.4875 O.2     1  UNL1       -0.2745
     13 C         140.1839  138.3219  157.4082 C.3     1  UNL1        0.0937
     14 C         140.1486  138.6627  158.8685 C.3     1  UNL1        0.0259
     15 C         142.6934  136.7832  154.7465 C.3     1  UNL1        0.1116
     16 C         142.8518  135.2928  154.6859 C.ar    1  UNL1       -0.0100
     17 C         143.7025  134.5872  155.7000 C.ar    1  UNL1        0.0169
     18 C         143.8609  133.0969  155.6394 C.ar    1  UNL1        0.0986
     19 N         143.1687  132.3121  154.5647 N.ar    1  UNL1       -0.2423
     20 C         142.3180  133.0177  153.5506 C.ar    1  UNL1        0.0986
     21 C         142.1596  134.5081  153.6112 C.ar    1  UNL1        0.0169
     22 C         142.6608  141.5555  163.6467 C.2     1  UNL1       -0.0253
     23 C         144.0860  141.4828  164.1090 C.2     1  UNL1       -0.0303
     24 C         144.7765  142.7174  164.6080 C.3     1  UNL1        0.0257
     25 C         144.0419  144.0247  164.6447 C.3     1  UNL1        0.0050
     26 C         142.6168  144.0974  164.1824 C.3     1  UNL1        0.0050
     27 C         141.9262  142.8628  163.6834 C.3     1  UNL1        0.0261
     28 C         142.2470  139.2071  166.4959 C.2     1  UNL1        0.2837
     29 O         143.3203  138.3053  165.9619 O.2     1  UNL1       -0.2665
     30 N         141.2091  139.7680  165.5695 N.am    1  UNL1       -0.2779
     31 H         140.5048  140.3598  165.9200 H       1  UNL1        0.1553
     32 C         141.6322  140.5908  170.0697 C.ar    1  UNL1        0.1469
     33 C         142.6827  139.5539  170.3372 C.ar    1  UNL1        0.1282
     34 N         143.0409  138.9094  169.0309 N.ar    1  UNL1       -0.2205
     35 C         142.2118  139.5479  167.9562 C.ar    1  UNL1        0.1958
     36 N         141.3412  140.5870  168.5983 N.ar    1  UNL1       -0.3257
     37 H         140.6926  141.1651  168.1352 H       1  UNL1        0.1682
     38 N         140.3402  142.3611  172.1183 N.1     1  UNL1       -0.1893
     39 C         140.9862  141.4760  171.0940 C.1     1  UNL1        0.1194
@<TRIPOS>BOND
     1    38    39    3
     2    39    32    1
     3    32    33   ar
     4    33    34   ar
     5    34    35   ar
     6    35    28    1
     7    28    29    2
     8    28    30   am
     9    30     1    1
    10     1     2   ar
    11     2     3   ar
    12     3     4   ar
    13     4     7    1
    14     7     8    1
    15     8     9    1
    16     9    10    1
    17    10    11   am
    18    11    12    2
    19    11    15    1
    20    15    16    1
    21    16    17   ar
    22    17    18   ar
    23    18    19   ar
    24    19    20   ar
    25    20    21   ar
    26    10    13    1
    27    13    14    1
    28     4     5   ar
    29     5     6   ar
    30     6    22    1
    31    22    23    2
    32    23    24    1
    33    24    25    1
    34    25    26    1
    35    26    27    1
    36    35    36   ar
    37    36    32   ar
    38     6     1   ar
    39    27    22    1
    40    14     7    1
    41    21    16   ar
    42    30    31    1
    43    36    37    1
@<TRIPOS>MOLECULE
*****
 39 43 0 0 0
SMALL
GASTEIGER

@<TRIPOS>ATOM
      1 C         141.0342  139.5632  163.9401 C.ar    1  UNL1        0.0502
      2 C         141.6515  138.2551  163.5428 C.ar    1  UNL1        0.0143
      3 C         141.7141  137.8641  162.0961 C.ar    1  UNL1       -0.0030
      4 C         141.1595  138.7812  161.0466 C.ar    1  UNL1       -0.0223
      5 C         140.5422  140.0893  161.4439 C.ar    1  UNL1       -0.0034
      6 C         140.4795  140.4803  162.8906 C.ar    1  UNL1        0.0089
      7 C         141.2221  138.3901  159.5998 C.3     1  UNL1        0.0257
      8 C         142.4818  137.8030  159.0355 C.3     1  UNL1        0.0259
      9 C         142.5445  137.4120  157.5886 C.3     1  UNL1        0.0937
     10 N         141.3474  137.6081  156.7062 N.am    1  UNL1       -0.2792
     11 C         141.4101  137.2170  155.2595 C.2     1  UNL1        0.2301
     12 O         140.2130  137.4131  154.3770 O.2     1  UNL1       -0.2745
     13 C         140.0877  138.1952  157.2706 C.3     1  UNL1        0.0937
     14 C         140.0251  138.5862  158.7174 C.3     1  UNL1        0.0259
     15 C         142.6697  136.6299  154.6951 C.3     1  UNL1        0.1116
     16 C         142.8590  135.1420  154.6721 C.ar    1  UNL1       -0.0100
     17 C         143.6877  134.4749  155.7295 C.ar    1  UNL1        0.0169
     18 C         143.8769  132.9871  155.7064 C.ar    1  UNL1        0.0986
     19 N         143.2376  132.1664  154.6258 N.ar    1  UNL1       -0.2423
     20 C         142.4089  132.8335  153.5683 C.ar    1  UNL1        0.0986
     21 C         142.2197  134.3213  153.5915 C.ar    1  UNL1        0.0169
     22 C         139.8622  141.7884  163.2880 C.2     1  UNL1       -0.0253
     23 C         140.7069  143.0260  163.3572 C.2     1  UNL1       -0.0303
     24 C         140.0896  144.3341  163.7545 C.3     1  UNL1        0.0257
     25 C         138.6276  144.4046  164.0827 C.3     1  UNL1        0.0050
     26 C         137.7829  143.1669  164.0135 C.3     1  UNL1        0.0050
     27 C         138.4002  141.8588  163.6161 C.3     1  UNL1        0.0261
     28 C         139.8045  139.5302  166.2286 C.2     1  UNL1        0.2837
     29 O         138.7002  138.7151  165.6234 O.2     1  UNL1       -0.2665
     30 N         140.9715  139.9543  165.3869 N.am    1  UNL1       -0.2779
     31 H         141.6963  140.4892  165.7841 H       1  UNL1        0.1553
     32 C         140.3140  140.8570  169.8404 C.ar    1  UNL1        0.1469
     33 C         138.9765  140.1889  169.9630 C.ar    1  UNL1        0.1282
     34 N         138.6229  139.6106  168.6249 N.ar    1  UNL1       -0.2205
     35 C         139.7418  139.9212  167.6753 C.ar    1  UNL1        0.1958
     36 N         140.7869  140.6915  168.4265 N.ar    1  UNL1       -0.3257
     37 H         141.6345  141.0292  168.0565 H       1  UNL1        0.1682
     38 N         141.7848  142.2750  172.0372 N.1     1  UNL1       -0.1893
     39 C         141.0494  141.5660  170.9388 C.1     1  UNL1        0.1194
@<TRIPOS>BOND
     1    38    39    3
     2    39    32    1
     3    32    33   ar
     4    33    34   ar
     5    34    35   ar
     6    35    28    1
     7    28    29    2
     8    28    30   am
     9    30     1    1
    10     1     2   ar
    11     2     3   ar
    12     3     4   ar
    13     4     7    1
    14     7     8    1
    15     8     9    1
    16     9    10    1
    17    10    11   am
    18    11    12    2
    19    11    15    1
    20    15    16    1
    21    16    17   ar
    22    17    18   ar
    23    18    19   ar
    24    19    20   ar
    25    20    21   ar
    26    10    13    1
    27    13    14    1
    28     4     5   ar
    29     5     6   ar
    30     6    22    1
    31    22    23    2
    32    23    24    1
    33    24    25    1
    34    25    26    1
    35    26    27    1
    36    35    36   ar
    37    36    32   ar
    38     6     1   ar
    39    27    22    1
    40    14     7    1
    41    21    16   ar
    42    30    31    1
    43    36    37    1
@<TRIPOS>MOLECULE
*****
 39 43 0 0 0
SMALL
GASTEIGER

@<TRIPOS>ATOM
      1 C         141.4419  144.1062  163.3641 C.ar    1  UNL1        0.0502
      2 C         140.4528  145.1531  162.9453 C.ar    1  UNL1        0.0143
      3 C         140.3517  145.5554  161.5038 C.ar    1  UNL1       -0.0030
      4 C         141.2398  144.9107  160.4812 C.ar    1  UNL1       -0.0223
      5 C         142.2289  143.8638  160.9000 C.ar    1  UNL1       -0.0034
      6 C         142.3300  143.4615  162.3415 C.ar    1  UNL1        0.0089
      7 C         141.1387  145.3130  159.0396 C.3     1  UNL1        0.0257
      8 C         139.9989  146.1724  158.5790 C.3     1  UNL1        0.0259
      9 C         139.8978  146.5747  157.1374 C.3     1  UNL1        0.0937
     10 N         140.9365  146.1175  156.1565 N.am    1  UNL1       -0.2792
     11 C         140.8354  146.5198  154.7151 C.2     1  UNL1        0.2301
     12 O         141.8741  146.0626  153.7342 O.2     1  UNL1       -0.2745
     13 C         142.0763  145.2580  156.6173 C.3     1  UNL1        0.0937
     14 C         142.1773  144.8558  158.0587 C.3     1  UNL1        0.0259
     15 C         139.6956  147.3792  154.2544 C.3     1  UNL1        0.1116
     16 C         139.7286  148.8598  154.4929 C.ar    1  UNL1       -0.0100
     17 C         140.7354  149.7122  153.7789 C.ar    1  UNL1        0.0169
     18 C         140.7684  151.1927  154.0173 C.ar    1  UNL1        0.0986
     19 N         139.7946  151.8209  154.9698 N.ar    1  UNL1       -0.2423
     20 C         138.7878  150.9685  155.6838 C.ar    1  UNL1        0.0986
     21 C         138.7549  149.4880  155.4453 C.ar    1  UNL1        0.0169
     22 C         143.3191  142.4145  162.7605 C.2     1  UNL1       -0.0253
     23 C         144.6345  142.8210  163.3560 C.2     1  UNL1       -0.0303
     24 C         145.6236  141.7741  163.7749 C.3     1  UNL1        0.0257
     25 C         145.2975  140.3207  163.5984 C.3     1  UNL1        0.0050
     26 C         143.9821  139.9142  163.0029 C.3     1  UNL1        0.0050
     27 C         142.9929  140.9611  162.5839 C.3     1  UNL1        0.0261
     28 C         140.8065  142.4944  165.3002 C.2     1  UNL1        0.2837
     29 O         139.9688  141.6872  164.3532 O.2     1  UNL1       -0.2665
     30 N         141.5430  143.7039  164.8057 N.am    1  UNL1       -0.2779
     31 H         142.0928  144.2337  165.4272 H       1  UNL1        0.1553
     32 C         140.4356  141.0680  168.8909 C.ar    1  UNL1        0.1469
     33 C         141.6906  141.8780  169.0290 C.ar    1  UNL1        0.1282
     34 N         141.9822  142.5109  167.7007 N.ar    1  UNL1       -0.2205
     35 C         140.9076  142.0921  166.7417 C.ar    1  UNL1        0.1958
     36 N         139.9517  141.2003  167.4773 N.ar    1  UNL1       -0.3257
     37 H         139.1479  140.7763  167.0987 H       1  UNL1        0.1682
     38 N         139.1239  139.4647  171.0609 N.1     1  UNL1       -0.1893
     39 C         139.7798  140.2664  169.9759 C.1     1  UNL1        0.1194
@<TRIPOS>BOND
     1    38    39    3
     2    39    32    1
     3    32    33   ar
     4    33    34   ar
     5    34    35   ar
     6    35    28    1
     7    28    29    2
     8    28    30   am
     9    30     1    1
    10     1     2   ar
    11     2     3   ar
    12     3     4   ar
    13     4     7    1
    14     7     8    1
    15     8     9    1
    16     9    10    1
    17    10    11   am
    18    11    12    2
    19    11    15    1
    20    15    16    1
    21    16    17   ar
    22    17    18   ar
    23    18    19   ar
    24    19    20   ar
    25    20    21   ar
    26    10    13    1
    27    13    14    1
    28     4     5   ar
    29     5     6   ar
    30     6    22    1
    31    22    23    2
    32    23    24    1
    33    24    25    1
    34    25    26    1
    35    26    27    1
    36    35    36   ar
    37    36    32   ar
    38     6     1   ar
    39    27    22    1
    40    14     7    1
    41    21    16   ar
    42    30    31    1
    43    36    37    1
@<TRIPOS>MOLECULE
*****
 39 43 0 0 0
SMALL
GASTEIGER

@<TRIPOS>ATOM
      1 C         142.9953  141.2212  163.8385 C.ar    1  UNL1        0.0502
      2 C         144.1440  142.0898  163.4190 C.ar    1  UNL1        0.0143
      3 C         144.5510  142.1501  161.9766 C.ar    1  UNL1       -0.0030
      4 C         143.8094  141.3416  160.9536 C.ar    1  UNL1       -0.0223
      5 C         142.6607  140.4730  161.3731 C.ar    1  UNL1       -0.0034
      6 C         142.2537  140.4128  162.8155 C.ar    1  UNL1        0.0089
      7 C         144.2165  141.4019  159.5111 C.3     1  UNL1        0.0257
      8 C         145.0177  142.5649  159.0059 C.3     1  UNL1        0.0259
      9 C         145.4248  142.6252  157.5634 C.3     1  UNL1        0.0937
     10 N         145.0306  141.5224  156.6262 N.am    1  UNL1       -0.2792
     11 C         145.4376  141.5826  155.1838 C.2     1  UNL1        0.2301
     12 O         145.0434  140.4797  154.2465 O.2     1  UNL1       -0.2745
     13 C         144.2293  140.3593  157.1315 C.3     1  UNL1        0.0937
     14 C         143.8222  140.2991  158.5739 C.3     1  UNL1        0.0259
     15 C         146.2389  142.7456  154.6785 C.3     1  UNL1        0.1116
     16 C         147.7181  142.6047  154.4734 C.ar    1  UNL1       -0.0100
     17 C         148.5410  141.8269  155.4572 C.ar    1  UNL1        0.0169
     18 C         150.0202  141.6861  155.2521 C.ar    1  UNL1        0.0986
     19 N         150.6765  142.3230  154.0631 N.ar    1  UNL1       -0.2423
     20 C         149.8536  143.1008  153.0793 C.ar    1  UNL1        0.0986
     21 C         148.3745  143.2416  153.2845 C.ar    1  UNL1        0.0169
     22 C         141.1050  139.5441  163.2351 C.2     1  UNL1       -0.0253
     23 C         139.7208  140.1169  163.3127 C.2     1  UNL1       -0.0303
     24 C         138.5721  139.2483  163.7322 C.3     1  UNL1        0.0257
     25 C         138.8076  137.8068  164.0741 C.3     1  UNL1        0.0050
     26 C         140.1917  137.2340  163.9965 C.3     1  UNL1        0.0050
     27 C         141.3404  138.1027  163.5769 C.3     1  UNL1        0.0261
     28 C         143.1368  140.0852  166.1708 C.2     1  UNL1        0.2837
     29 O         144.0926  139.0697  165.6180 O.2     1  UNL1       -0.2665
     30 N         142.5882  141.1609  165.2810 N.am    1  UNL1       -0.2779
     31 H         141.9610  141.8274  165.6437 H       1  UNL1        0.1553
     32 C         141.8153  140.6226  169.7804 C.ar    1  UNL1        0.1469
     33 C         142.3916  139.2416  169.8854 C.ar    1  UNL1        0.1282
     34 N         142.9568  138.8723  168.5459 N.ar    1  UNL1       -0.2205
     35 C         142.7298  140.0249  167.6132 C.ar    1  UNL1        0.1958
     36 N         142.0243  141.1066  168.3761 N.ar    1  UNL1       -0.3257
     37 H         141.7471  141.9808  168.0181 H       1  UNL1        0.1682
     38 N         140.4791  142.1484  171.9910 N.1     1  UNL1       -0.1893
     39 C         141.1472  141.3855  170.8857 C.1     1  UNL1        0.1194
@<TRIPOS>BOND
     1    38    39    3
     2    39    32    1
     3    32    33   ar
     4    33    34   ar
     5    34    35   ar
     6    35    28    1
     7    28    29    2
     8    28    30   am
     9    30     1    1
    10     1     2   ar
    11     2     3   ar
    12     3     4   ar
    13     4     7    1
    14     7     8    1
    15     8     9    1
    16     9    10    1
    17    10    11   am
    18    11    12    2
    19    11    15    1
    20    15    16    1
    21    16    17   ar
    22    17    18   ar
    23    18    19   ar
    24    19    20   ar
    25    20    21   ar
    26    10    13    1
    27    13    14    1
    28     4     5   ar
    29     5     6   ar
    30     6    22    1
    31    22    23    2
    32    23    24    1
    33    24    25    1
    34    25    26    1
    35    26    27    1
    36    35    36   ar
    37    36    32   ar
    38     6     1   ar
    39    27    22    1
    40    14     7    1
    41    21    16   ar
    42    30    31    1
    43    36    37    1
@<TRIPOS>MOLECULE
*****
 39 43 0 0 0
SMALL
GASTEIGER

@<TRIPOS>ATOM
      1 C         142.1388  140.9735  163.4583 C.ar    1  UNL1        0.0502
      2 C         143.3918  140.2116  163.1430 C.ar    1  UNL1        0.0143
      3 C         144.0149  140.3227  161.7830 C.ar    1  UNL1       -0.0030
      4 C         143.3849  141.1956  160.7385 C.ar    1  UNL1       -0.0223
      5 C         142.1319  141.9575  161.0538 C.ar    1  UNL1       -0.0034
      6 C         141.5088  141.8464  162.4137 C.ar    1  UNL1        0.0089
      7 C         144.0080  141.3066  159.3785 C.3     1  UNL1        0.0257
      8 C         144.8420  142.5040  159.0311 C.3     1  UNL1        0.0259
      9 C         145.4651  142.6150  157.6711 C.3     1  UNL1        0.0937
     10 N         145.2541  141.5286  156.6586 N.am    1  UNL1       -0.2792
     11 C         145.8772  141.6396  155.2986 C.2     1  UNL1        0.2301
     12 O         145.6662  140.5533  154.2861 O.2     1  UNL1       -0.2745
     13 C         144.4200  140.3312  157.0060 C.3     1  UNL1        0.0937
     14 C         143.7970  140.2203  158.3659 C.3     1  UNL1        0.0259
     15 C         146.7112  142.8370  154.9513 C.3     1  UNL1        0.1116
     16 C         148.1466  142.6611  154.5528 C.ar    1  UNL1       -0.0100
     17 C         149.0403  141.7562  155.3480 C.ar    1  UNL1        0.0169
     18 C         150.4756  141.5804  154.9495 C.ar    1  UNL1        0.0986
     19 N         151.0173  142.3094  153.7557 N.ar    1  UNL1       -0.2423
     20 C         150.1236  143.2143  152.9604 C.ar    1  UNL1        0.0986
     21 C         148.6883  143.3901  153.3590 C.ar    1  UNL1        0.0169
     22 C         140.2558  142.6083  162.7292 C.2     1  UNL1       -0.0253
     23 C         140.3409  144.0297  163.2007 C.2     1  UNL1       -0.0303
     24 C         139.0879  144.7916  163.5161 C.3     1  UNL1        0.0257
     25 C         137.7497  144.1321  163.3600 C.3     1  UNL1        0.0050
     26 C         137.6646  142.7106  162.8885 C.3     1  UNL1        0.0050
     27 C         138.9177  141.9488  162.5731 C.3     1  UNL1        0.0261
     28 C         141.9683  141.7662  165.9267 C.2     1  UNL1        0.2837
     29 O         143.0440  142.7809  165.6750 O.2     1  UNL1       -0.2665
     30 N         141.5157  140.8625  164.8183 N.am    1  UNL1       -0.2779
     31 H         140.8097  140.1965  164.9834 H       1  UNL1        0.1553
     32 C         139.8969  140.9820  169.1140 C.ar    1  UNL1        0.1469
     33 C         140.8761  141.9868  169.6447 C.ar    1  UNL1        0.1282
     34 N         141.7712  142.4028  168.5153 N.ar    1  UNL1       -0.2205
     35 C         141.3453  141.6552  167.2866 C.ar    1  UNL1        0.1958
     36 N         140.1869  140.7770  167.6567 N.ar    1  UNL1       -0.3257
     37 H         139.7020  140.1724  167.0496 H       1  UNL1        0.1682
     38 N         137.7376  139.6211  170.6907 N.1     1  UNL1       -0.1893
     39 C         138.8173  140.3015  169.9024 C.1     1  UNL1        0.1194
@<TRIPOS>BOND
     1    38    39    3
     2    39    32    1
     3    32    33   ar
     4    33    34   ar
     5    34    35   ar
     6    35    28    1
     7    28    29    2
     8    28    30   am
     9    30     1    1
    10     1     2   ar
    11     2     3   ar
    12     3     4   ar
    13     4     7    1
    14     7     8    1
    15     8     9    1
    16     9    10    1
    17    10    11   am
    18    11    12    2
    19    11    15    1
    20    15    16    1
    21    16    17   ar
    22    17    18   ar
    23    18    19   ar
    24    19    20   ar
    25    20    21   ar
    26    10    13    1
    27    13    14    1
    28     4     5   ar
    29     5     6   ar
    30     6    22    1
    31    22    23    2
    32    23    24    1
    33    24    25    1
    34    25    26    1
    35    26    27    1
    36    35    36   ar
    37    36    32   ar
    38     6     1   ar
    39    27    22    1
    40    14     7    1
    41    21    16   ar
    42    30    31    1
    43    36    37    1
@<TRIPOS>MOLECULE
*****
 39 43 0 0 0
SMALL
GASTEIGER

@<TRIPOS>ATOM
      1 C         142.1339  139.9782  163.7343 C.ar    1  UNL1        0.0502
      2 C         143.1946  140.2647  162.7132 C.ar    1  UNL1        0.0143
      3 C         143.0508  139.7407  161.3151 C.ar    1  UNL1       -0.0030
      4 C         141.8463  138.9302  160.9381 C.ar    1  UNL1       -0.0223
      5 C         140.7855  138.6437  161.9592 C.ar    1  UNL1       -0.0034
      6 C         140.9293  139.1677  163.3573 C.ar    1  UNL1        0.0089
      7 C         141.7025  138.4061  159.5399 C.3     1  UNL1        0.0257
      8 C         142.7490  137.4959  158.9688 C.3     1  UNL1        0.0259
      9 C         142.6052  136.9719  157.5707 C.3     1  UNL1        0.0937
     10 N         141.4149  137.3581  156.7437 N.am    1  UNL1       -0.2792
     11 C         141.2711  136.8342  155.3456 C.2     1  UNL1        0.2301
     12 O         140.0807  137.2204  154.5186 O.2     1  UNL1       -0.2745
     13 C         140.3683  138.2684  157.3149 C.3     1  UNL1        0.0937
     14 C         140.5121  138.7924  158.7130 C.3     1  UNL1        0.0259
     15 C         142.3176  135.9240  154.7745 C.3     1  UNL1        0.1116
     16 C         142.1235  134.4372  154.8185 C.ar    1  UNL1       -0.0100
     17 C         141.4690  133.7318  153.6678 C.ar    1  UNL1        0.0169
     18 C         141.2749  132.2451  153.7119 C.ar    1  UNL1        0.0986
     19 N         141.7354  131.4637  154.9067 N.ar    1  UNL1       -0.2423
     20 C         142.3899  132.1691  156.0574 C.ar    1  UNL1        0.0986
     21 C         142.5839  133.6558  156.0133 C.ar    1  UNL1        0.0169
     22 C         139.8686  138.8812  164.3785 C.2     1  UNL1       -0.0253
     23 C         139.0792  140.0079  164.9763 C.2     1  UNL1       -0.0303
     24 C         138.0185  139.7215  165.9974 C.3     1  UNL1        0.0257
     25 C         137.7471  138.3083  166.4208 C.3     1  UNL1        0.0050
     26 C         138.5364  137.1815  165.8230 C.3     1  UNL1        0.0050
     27 C         139.5972  137.4680  164.8018 C.3     1  UNL1        0.0261
     28 C         142.6621  139.5733  166.2457 C.2     1  UNL1        0.2837
     29 O         142.9027  138.1203  165.9608 O.2     1  UNL1       -0.2665
     30 N         142.2777  140.5022  165.1324 N.am    1  UNL1       -0.2779
     31 H         142.1197  141.4558  165.3194 H       1  UNL1        0.1553
     32 C         143.0472  141.6049  169.5304 C.ar    1  UNL1        0.1469
     33 C         143.0071  140.2021  170.0602 C.ar    1  UNL1        0.1282
     34 N         142.8580  139.2704  168.8943 N.ar    1  UNL1       -0.2205
     35 C         142.8059  140.0972  167.6438 C.ar    1  UNL1        0.1958
     36 N         142.9228  141.5400  168.0370 N.ar    1  UNL1       -0.3257
     37 H         142.9187  142.3094  167.4227 H       1  UNL1        0.1682
     38 N         143.3269  144.1018  171.1698 N.1     1  UNL1       -0.1893
     39 C         143.1871  142.8533  170.3501 C.1     1  UNL1        0.1194
@<TRIPOS>BOND
     1    38    39    3
     2    39    32    1
     3    32    33   ar
     4    33    34   ar
     5    34    35   ar
     6    35    28    1
     7    28    29    2
     8    28    30   am
     9    30     1    1
    10     1     2   ar
    11     2     3   ar
    12     3     4   ar
    13     4     7    1
    14     7     8    1
    15     8     9    1
    16     9    10    1
    17    10    11   am
    18    11    12    2
    19    11    15    1
    20    15    16    1
    21    16    17   ar
    22    17    18   ar
    23    18    19   ar
    24    19    20   ar
    25    20    21   ar
    26    10    13    1
    27    13    14    1
    28     4     5   ar
    29     5     6   ar
    30     6    22    1
    31    22    23    2
    32    23    24    1
    33    24    25    1
    34    25    26    1
    35    26    27    1
    36    35    36   ar
    37    36    32   ar
    38     6     1   ar
    39    27    22    1
    40    14     7    1
    41    21    16   ar
    42    30    31    1
    43    36    37    1
@<TRIPOS>MOLECULE
*****
 39 43 0 0 0
SMALL
GASTEIGER

@<TRIPOS>ATOM
      1 C         140.3544  142.6135  160.4659 C.ar    1  UNL1        0.0502
      2 C         139.5022  142.3050  159.2707 C.ar    1  UNL1        0.0143
      3 C         139.4839  143.2432  158.1005 C.ar    1  UNL1       -0.0030
      4 C         140.3177  144.4898  158.1255 C.ar    1  UNL1       -0.0223
      5 C         141.1699  144.7983  159.3207 C.ar    1  UNL1       -0.0034
      6 C         141.1882  143.8601  160.4909 C.ar    1  UNL1        0.0089
      7 C         140.2994  145.4280  156.9552 C.3     1  UNL1        0.0257
      8 C         139.4855  146.6865  157.0155 C.3     1  UNL1        0.0259
      9 C         139.4671  147.6247  155.8452 C.3     1  UNL1        0.0937
     10 N         140.2626  147.3043  154.6146 N.am    1  UNL1       -0.2792
     11 C         140.2443  148.2424  153.4443 C.2     1  UNL1        0.2301
     12 O         141.0398  147.9220  152.2137 O.2     1  UNL1       -0.2745
     13 C         141.0766  146.0457  154.5543 C.3     1  UNL1        0.0937
     14 C         141.0949  145.1076  155.7245 C.3     1  UNL1        0.0259
     15 C         139.4304  149.5009  153.5047 C.3     1  UNL1        0.1116
     16 C         140.1130  150.8299  153.6394 C.ar    1  UNL1       -0.0100
     17 C         141.5703  150.8925  153.9893 C.ar    1  UNL1        0.0169
     18 C         142.2528  152.2213  154.1239 C.ar    1  UNL1        0.0986
     19 N         141.4781  153.4876  153.9087 N.ar    1  UNL1       -0.2423
     20 C         140.0209  153.4250  153.5589 C.ar    1  UNL1        0.0986
     21 C         139.3383  152.0962  153.4242 C.ar    1  UNL1        0.0169
     22 C         142.0404  144.1685  161.6862 C.2     1  UNL1       -0.0253
     23 C         141.4947  145.0147  162.7981 C.2     1  UNL1       -0.0303
     24 C         142.3469  145.3231  163.9934 C.3     1  UNL1        0.0257
     25 C         143.7447  144.7854  164.0768 C.3     1  UNL1        0.0050
     26 C         144.2904  143.9393  162.9649 C.3     1  UNL1        0.0050
     27 C         143.4382  143.6308  161.7696 C.3     1  UNL1        0.0261
     28 C         139.3211  141.7829  162.7003 C.2     1  UNL1        0.2837
     29 O         138.2510  142.8288  162.5941 O.2     1  UNL1       -0.2665
     30 N         140.3728  141.6753  161.6362 N.am    1  UNL1       -0.2779
     31 H         141.0751  140.9889  161.7059 H       1  UNL1        0.1553
     32 C         138.6177  139.3959  165.6790 C.ar    1  UNL1        0.1469
     33 C         140.1176  139.4064  165.6639 C.ar    1  UNL1        0.1282
     34 N         140.5636  140.3019  164.5463 N.ar    1  UNL1       -0.2205
     35 C         139.3394  140.8448  163.8706 C.ar    1  UNL1        0.1958
     36 N         138.1368  140.2849  164.5706 N.ar    1  UNL1       -0.3257
     37 H         137.1968  140.4686  164.3426 H       1  UNL1        0.1682
     38 N         136.8840  137.8656  167.5902 N.1     1  UNL1       -0.1893
     39 C         137.7508  138.6308  166.6346 C.1     1  UNL1        0.1194
@<TRIPOS>BOND
     1    38    39    3
     2    39    32    1
     3    32    33   ar
     4    33    34   ar
     5    34    35   ar
     6    35    28    1
     7    28    29    2
     8    28    30   am
     9    30     1    1
    10     1     2   ar
    11     2     3   ar
    12     3     4   ar
    13     4     7    1
    14     7     8    1
    15     8     9    1
    16     9    10    1
    17    10    11   am
    18    11    12    2
    19    11    15    1
    20    15    16    1
    21    16    17   ar
    22    17    18   ar
    23    18    19   ar
    24    19    20   ar
    25    20    21   ar
    26    10    13    1
    27    13    14    1
    28     4     5   ar
    29     5     6   ar
    30     6    22    1
    31    22    23    2
    32    23    24    1
    33    24    25    1
    34    25    26    1
    35    26    27    1
    36    35    36   ar
    37    36    32   ar
    38     6     1   ar
    39    27    22    1
    40    14     7    1
    41    21    16   ar
    42    30    31    1
    43    36    37    1
@<TRIPOS>MOLECULE
*****
 39 43 0 0 0
SMALL
GASTEIGER

@<TRIPOS>ATOM
      1 C         140.7919  140.0599  163.5050 C.ar    1  UNL1        0.0502
      2 C         141.2748  138.6550  163.2979 C.ar    1  UNL1        0.0143
      3 C         141.3710  138.0918  161.9110 C.ar    1  UNL1       -0.0030
      4 C         140.9842  138.9336  160.7312 C.ar    1  UNL1       -0.0223
      5 C         140.5013  140.3385  160.9383 C.ar    1  UNL1       -0.0034
      6 C         140.4051  140.9017  162.3252 C.ar    1  UNL1        0.0089
      7 C         141.0804  138.3703  159.3443 C.3     1  UNL1        0.0257
      8 C         142.3881  137.8348  158.8413 C.3     1  UNL1        0.0259
      9 C         142.4842  137.2715  157.4543 C.3     1  UNL1        0.0937
     10 N         141.2726  137.2438  156.5704 N.am    1  UNL1       -0.2792
     11 C         141.3687  136.6806  155.1836 C.2     1  UNL1        0.2301
     12 O         140.1571  136.6529  154.2997 O.2     1  UNL1       -0.2745
     13 C         139.9649  137.7794  157.0735 C.3     1  UNL1        0.0937
     14 C         139.8688  138.3426  158.4604 C.3     1  UNL1        0.0259
     15 C         142.6764  136.1451  154.6806 C.3     1  UNL1        0.1116
     16 C         142.9681  134.6761  154.7661 C.ar    1  UNL1       -0.0100
     17 C         142.4097  133.7394  153.7362 C.ar    1  UNL1        0.0169
     18 C         142.7013  132.2706  153.8218 C.ar    1  UNL1        0.0986
     19 N         143.5514  131.7384  154.9372 N.ar    1  UNL1       -0.2423
     20 C         144.1098  132.6751  155.9671 C.ar    1  UNL1        0.0986
     21 C         143.8181  134.1440  155.8815 C.ar    1  UNL1        0.0169
     22 C         139.9222  142.3067  162.5324 C.2     1  UNL1       -0.0253
     23 C         138.4571  142.5784  162.7048 C.2     1  UNL1       -0.0303
     24 C         137.9741  143.9832  162.9119 C.3     1  UNL1        0.0257
     25 C         138.9563  145.1165  162.9467 C.3     1  UNL1        0.0050
     26 C         140.4213  144.8448  162.7744 C.3     1  UNL1        0.0050
     27 C         140.9043  143.4398  162.5672 C.3     1  UNL1        0.0261
     28 C         141.9400  141.0308  165.6238 C.2     1  UNL1        0.2837
     29 O         143.2805  140.8751  164.9687 O.2     1  UNL1       -0.2665
     30 N         140.6957  140.6232  164.8920 N.am    1  UNL1       -0.2779
     31 H         139.8160  140.7253  165.3219 H       1  UNL1        0.1553
     32 C         141.1531  142.9260  168.9184 C.ar    1  UNL1        0.1469
     33 C         142.2389  141.9956  169.3715 C.ar    1  UNL1        0.1282
     34 N         142.6659  141.1724  168.1925 N.ar    1  UNL1       -0.2205
     35 C         141.8439  141.5940  167.0107 C.ar    1  UNL1        0.1958
     36 N         140.9090  142.6778  167.4593 N.ar    1  UNL1       -0.3257
     37 H         140.2507  143.1443  166.8952 H       1  UNL1        0.1682
     38 N         139.7210  144.9312  170.6298 N.1     1  UNL1       -0.1893
     39 C         140.4371  143.9286  169.7741 C.1     1  UNL1        0.1194
@<TRIPOS>BOND
     1    38    39    3
     2    39    32    1
     3    32    33   ar
     4    33    34   ar
     5    34    35   ar
     6    35    28    1
     7    28    29    2
     8    28    30   am
     9    30     1    1
    10     1     2   ar
    11     2     3   ar
    12     3     4   ar
    13     4     7    1
    14     7     8    1
    15     8     9    1
    16     9    10    1
    17    10    11   am
    18    11    12    2
    19    11    15    1
    20    15    16    1
    21    16    17   ar
    22    17    18   ar
    23    18    19   ar
    24    19    20   ar
    25    20    21   ar
    26    10    13    1
    27    13    14    1
    28     4     5   ar
    29     5     6   ar
    30     6    22    1
    31    22    23    2
    32    23    24    1
    33    24    25    1
    34    25    26    1
    35    26    27    1
    36    35    36   ar
    37    36    32   ar
    38     6     1   ar
    39    27    22    1
    40    14     7    1
    41    21    16   ar
    42    30    31    1
    43    36    37    1
@<TRIPOS>MOLECULE
*****
 39 43 0 0 0
SMALL
GASTEIGER

@<TRIPOS>ATOM
      1 C         140.3254  142.6458  163.4271 C.ar    1  UNL1        0.0502
      2 C         140.1547  144.1019  163.1101 C.ar    1  UNL1        0.0143
      3 C         140.0568  144.5523  161.6827 C.ar    1  UNL1       -0.0030
      4 C         140.1296  143.5465  160.5722 C.ar    1  UNL1       -0.0223
      5 C         140.3003  142.0904  160.8892 C.ar    1  UNL1       -0.0034
      6 C         140.3982  141.6400  162.3166 C.ar    1  UNL1        0.0089
      7 C         140.0317  143.9969  159.1448 C.3     1  UNL1        0.0257
      8 C         140.8355  145.1719  158.6722 C.3     1  UNL1        0.0259
      9 C         140.7376  145.6223  157.2448 C.3     1  UNL1        0.0937
     10 N         139.8358  144.8977  156.2899 N.am    1  UNL1       -0.2792
     11 C         139.7379  145.3481  154.8625 C.2     1  UNL1        0.2301
     12 O         138.8362  144.6235  153.9076 O.2     1  UNL1       -0.2745
     13 C         139.0320  143.7227  156.7625 C.3     1  UNL1        0.0937
     14 C         139.1300  143.2723  158.1899 C.3     1  UNL1        0.0259
     15 C         140.5417  146.5230  154.3900 C.3     1  UNL1        0.1116
     16 C         139.9769  147.9088  154.4941 C.ar    1  UNL1       -0.0100
     17 C         140.3176  148.9374  153.4569 C.ar    1  UNL1        0.0169
     18 C         139.7528  150.3231  153.5611 C.ar    1  UNL1        0.0986
     19 N         138.8473  150.6801  154.7024 N.ar    1  UNL1       -0.2423
     20 C         138.5066  149.6514  155.7396 C.ar    1  UNL1        0.0986
     21 C         139.0714  148.2658  155.6354 C.ar    1  UNL1        0.0169
     22 C         140.5690  140.1838  162.6336 C.2     1  UNL1       -0.0253
     23 C         141.9444  139.6085  162.7990 C.2     1  UNL1       -0.0303
     24 C         142.1151  138.1524  163.1160 C.3     1  UNL1        0.0257
     25 C         140.9105  137.2715  163.2677 C.3     1  UNL1        0.0050
     26 C         139.5351  137.8468  163.1023 C.3     1  UNL1        0.0050
     27 C         139.3644  139.3030  162.7853 C.3     1  UNL1        0.0261
     28 C         141.7388  142.2593  165.5726 C.2     1  UNL1        0.2837
     29 O         142.9563  142.7737  164.8632 O.2     1  UNL1       -0.2665
     30 N         140.4234  142.1954  164.8545 N.am    1  UNL1       -0.2779
     31 H         139.6243  141.8578  165.3201 H       1  UNL1        0.1553
     32 C         141.4864  141.6373  169.3955 C.ar    1  UNL1        0.1469
     33 C         142.4886  140.5944  168.9977 C.ar    1  UNL1        0.1282
     34 N         142.7051  140.7006  167.5172 N.ar    1  UNL1       -0.2205
     35 C         141.8367  141.8089  167.0000 C.ar    1  UNL1        0.1958
     36 N         141.0836  142.3879  168.1608 N.ar    1  UNL1       -0.3257
     37 H         140.4381  143.1301  168.1196 H       1  UNL1        0.1682
     38 N         140.4667  142.1345  172.1728 N.1     1  UNL1       -0.1893
     39 C         140.9766  141.8859  170.7841 C.1     1  UNL1        0.1194
@<TRIPOS>BOND
     1    38    39    3
     2    39    32    1
     3    32    33   ar
     4    33    34   ar
     5    34    35   ar
     6    35    28    1
     7    28    29    2
     8    28    30   am
     9    30     1    1
    10     1     2   ar
    11     2     3   ar
    12     3     4   ar
    13     4     7    1
    14     7     8    1
    15     8     9    1
    16     9    10    1
    17    10    11   am
    18    11    12    2
    19    11    15    1
    20    15    16    1
    21    16    17   ar
    22    17    18   ar
    23    18    19   ar
    24    19    20   ar
    25    20    21   ar
    26    10    13    1
    27    13    14    1
    28     4     5   ar
    29     5     6   ar
    30     6    22    1
    31    22    23    2
    32    23    24    1
    33    24    25    1
    34    25    26    1
    35    26    27    1
    36    35    36   ar
    37    36    32   ar
    38     6     1   ar
    39    27    22    1
    40    14     7    1
    41    21    16   ar
    42    30    31    1
    43    36    37    1
