@<TRIPOS>MOLECULE
*****
 24 27 0 0 0
SMALL
GASTEIGER

@<TRIPOS>ATOM
      1 C         137.8893  138.6304  166.4389 C.3     1  UNL1        0.0722
      2 C         138.5857  139.8523  165.9176 C.ar    1  UNL1        0.1250
      3 N         138.3181  140.5272  164.6050 N.ar    1  UNL1       -0.2299
      4 C         139.2391  141.7060  164.4935 C.ar    1  UNL1        0.1082
      5 C         139.4238  142.7374  163.4202 C.ar    1  UNL1        0.0875
      6 C         140.4453  143.8224  163.5906 C.ar    1  UNL1        0.0119
      7 C         141.2822  143.8760  164.8343 C.ar    1  UNL1        0.0023
      8 C         141.0975  142.8446  165.9076 C.ar    1  UNL1        0.0191
      9 C         140.0759  141.7596  165.7372 C.ar    1  UNL1        0.0837
     10 N         139.6722  140.6140  166.6173 N.ar    1  UNL1       -0.2882
     11 C         140.2529  140.2874  167.9612 C.ar    1  UNL1        0.0953
     12 C         139.6042  140.5468  169.2886 C.ar    1  UNL1        0.0250
     13 C         140.5346  140.0638  170.3615 C.ar    1  UNL1        0.0131
     14 C         141.7584  139.5058  169.6972 C.ar    1  UNL1        0.0841
     15 S         141.5841  139.6441  168.2138 S.2     1  UNL1       -0.0648
     16 C         142.9473  138.9137  170.3939 C.2     1  UNL1        0.2519
     17 O         143.9407  139.8087  171.0740 O.2     1  UNL1       -0.2696
     18 N         143.1432  137.4267  170.4107 N.am    1  UNL1       -0.3021
     19 H         142.4912  136.8393  169.9644 H       1  UNL1        0.1497
     20 C         144.3322  136.8346  171.1075 C.3     1  UNL1        0.0720
     21 C         145.3171  135.7153  171.2721 C.3     1  UNL1        0.0213
     22 C         145.4069  136.9284  172.1498 C.3     1  UNL1        0.0213
     23 C         138.5869  142.6837  162.1765 C.1     1  UNL1        0.1020
     24 N         137.7500  142.6301  160.9328 N.1     1  UNL1       -0.1908
@<TRIPOS>BOND
     1     1     2    1
     2     2     3   ar
     3     3     4   ar
     4     4     5   ar
     5     5    23    1
     6    23    24    3
     7     5     6   ar
     8     6     7   ar
     9     7     8   ar
    10     8     9   ar
    11     9    10   ar
    12    10    11    1
    13    11    12   ar
    14    12    13   ar
    15    13    14   ar
    16    14    16    1
    17    16    17    2
    18    16    18   am
    19    18    20    1
    20    20    21    1
    21    21    22    1
    22    14    15   ar
    23    10     2   ar
    24    15    11   ar
    25     9     4   ar
    26    22    20    1
    27    18    19    1
@<TRIPOS>MOLECULE
*****
 24 27 0 0 0
SMALL
GASTEIGER

@<TRIPOS>ATOM
      1 C         137.4365  138.2825  167.1205 C.3     1  UNL1        0.0722
      2 C         138.6392  139.1680  167.2592 C.ar    1  UNL1        0.1250
      3 N         139.0637  139.8902  168.5034 N.ar    1  UNL1       -0.2299
      4 C         140.3155  140.6554  168.1911 C.ar    1  UNL1        0.1082
      5 C         141.1825  141.5469  169.0298 C.ar    1  UNL1        0.0875
      6 C         142.3986  142.1892  168.4312 C.ar    1  UNL1        0.0119
      7 C         142.7478  141.9399  166.9938 C.ar    1  UNL1        0.0023
      8 C         141.8808  141.0484  166.1551 C.ar    1  UNL1        0.0191
      9 C         140.6646  140.4062  166.7538 C.ar    1  UNL1        0.0837
     10 N         139.6286  139.4869  166.1778 N.ar    1  UNL1       -0.2882
     11 C         139.5891  138.9762  164.7680 C.ar    1  UNL1        0.0953
     12 C         140.0892  137.6420  164.2992 C.ar    1  UNL1        0.0250
     13 C         139.8516  137.5512  162.8209 C.ar    1  UNL1        0.0131
     14 C         139.2047  138.8294  162.3760 C.ar    1  UNL1        0.0841
     15 S         139.0425  139.7100  163.5794 S.2     1  UNL1       -0.0648
     16 C         138.7926  139.1674  160.9740 C.2     1  UNL1        0.2519
     17 O         137.3419  139.3610  160.6447 O.2     1  UNL1       -0.2696
     18 N         139.8309  139.3120  159.9012 N.am    1  UNL1       -0.3021
     19 H         140.7829  139.1850  160.1173 H       1  UNL1        0.1497
     20 C         139.4186  139.6501  158.4991 C.3     1  UNL1        0.0720
     21 C         139.3894  139.3156  157.0373 C.3     1  UNL1        0.0213
     22 C         138.7338  140.5704  157.5326 C.3     1  UNL1        0.0213
     23 C         140.8333  141.7962  170.4672 C.1     1  UNL1        0.1020
     24 N         140.4841  142.0454  171.9045 N.1     1  UNL1       -0.1908
@<TRIPOS>BOND
     1     1     2    1
     2     2     3   ar
     3     3     4   ar
     4     4     5   ar
     5     5    23    1
     6    23    24    3
     7     5     6   ar
     8     6     7   ar
     9     7     8   ar
    10     8     9   ar
    11     9    10   ar
    12    10    11    1
    13    11    12   ar
    14    12    13   ar
    15    13    14   ar
    16    14    16    1
    17    16    17    2
    18    16    18   am
    19    18    20    1
    20    20    21    1
    21    21    22    1
    22    14    15   ar
    23    10     2   ar
    24    15    11   ar
    25     9     4   ar
    26    22    20    1
    27    18    19    1
@<TRIPOS>MOLECULE
*****
 24 27 0 0 0
SMALL
GASTEIGER

@<TRIPOS>ATOM
      1 C         137.9179  138.4150  166.6263 C.3     1  UNL1        0.0722
      2 C         139.0551  139.3338  166.9618 C.ar    1  UNL1        0.1250
      3 N         139.1481  140.2165  168.1710 N.ar    1  UNL1       -0.2299
      4 C         140.4495  140.9595  168.1036 C.ar    1  UNL1        0.1082
      5 C         141.0787  141.9669  169.0196 C.ar    1  UNL1        0.0875
      6 C         142.4192  142.5508  168.6847 C.ar    1  UNL1        0.0119
      7 C         143.1304  142.1272  167.4338 C.ar    1  UNL1        0.0023
      8 C         142.5012  141.1198  166.5178 C.ar    1  UNL1        0.0191
      9 C         141.1607  140.5359  166.8527 C.ar    1  UNL1        0.0837
     10 N         140.2989  139.5312  166.1471 N.ar    1  UNL1       -0.2882
     11 C         140.6240  138.8444  164.8537 C.ar    1  UNL1        0.0953
     12 C         140.9207  137.3842  164.6812 C.ar    1  UNL1        0.0250
     13 C         141.1895  137.1346  163.2267 C.ar    1  UNL1        0.0131
     14 C         141.0589  138.4406  162.5003 C.ar    1  UNL1        0.0841
     15 S         140.7094  139.4972  163.5060 S.2     1  UNL1       -0.0648
     16 C         141.2450  138.6526  161.0272 C.2     1  UNL1        0.2519
     17 O         140.3452  139.5962  160.2856 O.2     1  UNL1       -0.2696
     18 N         142.3310  137.9210  160.2955 N.am    1  UNL1       -0.3021
     19 H         142.9216  137.3016  160.7822 H       1  UNL1        0.1497
     20 C         142.5172  138.1330  158.8223 C.3     1  UNL1        0.0720
     21 C         142.3593  137.6517  157.4104 C.3     1  UNL1        0.0213
     22 C         142.9975  138.9815  157.6825 C.3     1  UNL1        0.0213
     23 C         140.3674  142.3905  170.2705 C.1     1  UNL1        0.1020
     24 N         139.6562  142.8141  171.5214 N.1     1  UNL1       -0.1908
@<TRIPOS>BOND
     1     1     2    1
     2     2     3   ar
     3     3     4   ar
     4     4     5   ar
     5     5    23    1
     6    23    24    3
     7     5     6   ar
     8     6     7   ar
     9     7     8   ar
    10     8     9   ar
    11     9    10   ar
    12    10    11    1
    13    11    12   ar
    14    12    13   ar
    15    13    14   ar
    16    14    16    1
    17    16    17    2
    18    16    18   am
    19    18    20    1
    20    20    21    1
    21    21    22    1
    22    14    15   ar
    23    10     2   ar
    24    15    11   ar
    25     9     4   ar
    26    22    20    1
    27    18    19    1
@<TRIPOS>MOLECULE
*****
 24 27 0 0 0
SMALL
GASTEIGER

@<TRIPOS>ATOM
      1 C         144.3710  143.7061  165.1226 C.3     1  UNL1        0.0722
      2 C         143.2104  142.8464  165.5275 C.ar    1  UNL1        0.1250
      3 N         143.2209  141.8001  166.6023 N.ar    1  UNL1       -0.2299
      4 C         141.8525  141.1890  166.6677 C.ar    1  UNL1        0.1082
      5 C         141.2756  140.1101  167.5354 C.ar    1  UNL1        0.0875
      6 C         139.8425  139.6998  167.3688 C.ar    1  UNL1        0.0119
      7 C         138.9863  140.3684  166.3344 C.ar    1  UNL1        0.0023
      8 C         139.5633  141.4472  165.4666 C.ar    1  UNL1        0.0191
      9 C         140.9964  141.8575  165.6332 C.ar    1  UNL1        0.0837
     10 N         141.8356  142.8818  164.9286 N.ar    1  UNL1       -0.2882
     11 C         141.3800  143.7834  163.8197 C.ar    1  UNL1        0.0953
     12 C         140.7814  145.1490  163.9833 C.ar    1  UNL1        0.0250
     13 C         140.4744  145.6872  162.6172 C.ar    1  UNL1        0.0131
     14 C         140.8833  144.6542  161.6093 C.ar    1  UNL1        0.0841
     15 S         141.4430  143.4776  162.3526 S.2     1  UNL1       -0.0648
     16 C         140.7550  144.7764  160.1199 C.2     1  UNL1        0.2519
     17 O         139.5815  144.1627  159.4152 O.2     1  UNL1       -0.2696
     18 N         141.8002  145.5122  159.3349 N.am    1  UNL1       -0.3021
     19 H         142.5703  145.9150  159.7973 H       1  UNL1        0.1497
     20 C         141.6719  145.6344  157.8454 C.3     1  UNL1        0.0720
     21 C         140.9102  146.1033  156.6413 C.3     1  UNL1        0.0213
     22 C         142.2114  145.3771  156.4697 C.3     1  UNL1        0.0213
     23 C         142.1317  139.4415  168.5699 C.1     1  UNL1        0.1020
     24 N         142.9879  138.7730  169.6043 N.1     1  UNL1       -0.1908
@<TRIPOS>BOND
     1     1     2    1
     2     2     3   ar
     3     3     4   ar
     4     4     5   ar
     5     5    23    1
     6    23    24    3
     7     5     6   ar
     8     6     7   ar
     9     7     8   ar
    10     8     9   ar
    11     9    10   ar
    12    10    11    1
    13    11    12   ar
    14    12    13   ar
    15    13    14   ar
    16    14    16    1
    17    16    17    2
    18    16    18   am
    19    18    20    1
    20    20    21    1
    21    21    22    1
    22    14    15   ar
    23    10     2   ar
    24    15    11   ar
    25     9     4   ar
    26    22    20    1
    27    18    19    1
@<TRIPOS>MOLECULE
*****
 24 27 0 0 0
SMALL
GASTEIGER

@<TRIPOS>ATOM
      1 C         141.2944  139.9052  163.8798 C.3     1  UNL1        0.0722
      2 C         141.2257  140.4642  165.2700 C.ar    1  UNL1        0.1250
      3 N         141.7101  139.7868  166.5176 N.ar    1  UNL1       -0.2299
      4 C         141.4443  140.7026  167.6755 C.ar    1  UNL1        0.1082
      5 C         141.7092  140.5650  169.1454 C.ar    1  UNL1        0.0875
      6 C         141.3252  141.6707  170.0834 C.ar    1  UNL1        0.0119
      7 C         140.6764  142.9141  169.5514 C.ar    1  UNL1        0.0023
      8 C         140.4115  143.0518  168.0815 C.ar    1  UNL1        0.0191
      9 C         140.7955  141.9460  167.1435 C.ar    1  UNL1        0.0837
     10 N         140.6604  141.7986  165.6569 N.ar    1  UNL1       -0.2882
     11 C         140.0646  142.8085  164.7213 C.ar    1  UNL1        0.0953
     12 C         138.7137  143.4464  164.8566 C.ar    1  UNL1        0.0250
     13 C         138.5292  144.3899  163.7052 C.ar    1  UNL1        0.0131
     14 C         139.7661  144.3351  162.8582 C.ar    1  UNL1        0.0841
     15 S         140.7149  143.3577  163.4863 S.2     1  UNL1       -0.0648
     16 C         140.0110  145.1198  161.6036 C.2     1  UNL1        0.2519
     17 O         139.8216  146.6078  161.6006 O.2     1  UNL1       -0.2696
     18 N         140.4453  144.4166  160.3519 N.am    1  UNL1       -0.3021
     19 H         140.5695  143.4399  160.3538 H       1  UNL1        0.1497
     20 C         140.6902  145.2013  159.0972 C.3     1  UNL1        0.0720
     21 C         140.1625  145.9487  157.9086 C.3     1  UNL1        0.0213
     22 C         141.6423  145.8132  158.1128 C.3     1  UNL1        0.0213
     23 C         142.3580  139.3216  169.6774 C.1     1  UNL1        0.1020
     24 N         143.0068  138.0782  170.2094 N.1     1  UNL1       -0.1908
@<TRIPOS>BOND
     1     1     2    1
     2     2     3   ar
     3     3     4   ar
     4     4     5   ar
     5     5    23    1
     6    23    24    3
     7     5     6   ar
     8     6     7   ar
     9     7     8   ar
    10     8     9   ar
    11     9    10   ar
    12    10    11    1
    13    11    12   ar
    14    12    13   ar
    15    13    14   ar
    16    14    16    1
    17    16    17    2
    18    16    18   am
    19    18    20    1
    20    20    21    1
    21    21    22    1
    22    14    15   ar
    23    10     2   ar
    24    15    11   ar
    25     9     4   ar
    26    22    20    1
    27    18    19    1
@<TRIPOS>MOLECULE
*****
 24 27 0 0 0
SMALL
GASTEIGER

@<TRIPOS>ATOM
      1 C         141.0007  143.5186  164.7057 C.3     1  UNL1        0.0722
      2 C         141.2234  142.6346  165.8968 C.ar    1  UNL1        0.1250
      3 N         140.6577  142.8461  167.2698 N.ar    1  UNL1       -0.2299
      4 C         141.1355  141.7260  168.1457 C.ar    1  UNL1        0.1082
      5 C         140.8978  141.4123  169.5931 C.ar    1  UNL1        0.0875
      6 C         141.5211  140.1948  170.2088 C.ar    1  UNL1        0.0119
      7 C         142.3821  139.2909  169.3770 C.ar    1  UNL1        0.0023
      8 C         142.6198  139.6046  167.9296 C.ar    1  UNL1        0.0191
      9 C         141.9965  140.8222  167.3139 C.ar    1  UNL1        0.0837
     10 N         142.0508  141.3837  165.9241 N.ar    1  UNL1       -0.2882
     11 C         142.8008  140.7973  164.7649 C.ar    1  UNL1        0.0953
     12 C         144.2829  140.8708  164.5459 C.ar    1  UNL1        0.0250
     13 C         144.5986  140.1533  163.2669 C.ar    1  UNL1        0.0131
     14 C         143.3116  139.6365  162.6955 C.ar    1  UNL1        0.0841
     15 S         142.2006  140.0345  163.6214 S.2     1  UNL1       -0.0648
     16 C         143.1619  138.8583  161.4220 C.2     1  UNL1        0.2519
     17 O         143.8898  137.5584  161.2474 O.2     1  UNL1       -0.2696
     18 N         142.2843  139.3799  160.3230 N.am    1  UNL1       -0.3021
     19 H         141.8066  140.2331  160.4376 H       1  UNL1        0.1497
     20 C         142.1347  138.6017  159.0495 C.3     1  UNL1        0.0720
     21 C         142.7294  137.7363  157.9784 C.3     1  UNL1        0.0213
     22 C         141.2806  138.1192  157.9147 C.3     1  UNL1        0.0213
     23 C         140.0369  142.3161  170.4249 C.1     1  UNL1        0.1020
     24 N         139.1759  143.2199  171.2566 N.1     1  UNL1       -0.1908
@<TRIPOS>BOND
     1     1     2    1
     2     2     3   ar
     3     3     4   ar
     4     4     5   ar
     5     5    23    1
     6    23    24    3
     7     5     6   ar
     8     6     7   ar
     9     7     8   ar
    10     8     9   ar
    11     9    10   ar
    12    10    11    1
    13    11    12   ar
    14    12    13   ar
    15    13    14   ar
    16    14    16    1
    17    16    17    2
    18    16    18   am
    19    18    20    1
    20    20    21    1
    21    21    22    1
    22    14    15   ar
    23    10     2   ar
    24    15    11   ar
    25     9     4   ar
    26    22    20    1
    27    18    19    1
@<TRIPOS>MOLECULE
*****
 24 27 0 0 0
SMALL
GASTEIGER

@<TRIPOS>ATOM
      1 C         140.1715  138.3532  164.5119 C.3     1  UNL1        0.0722
      2 C         140.5244  139.2142  165.6884 C.ar    1  UNL1        0.1250
      3 N         139.7466  139.3228  166.9663 N.ar    1  UNL1       -0.2299
      4 C         140.4584  140.2936  167.8612 C.ar    1  UNL1        0.1082
      5 C         140.1551  140.7936  169.2425 C.ar    1  UNL1        0.0875
      6 C         141.0696  141.7849  169.8989 C.ar    1  UNL1        0.0119
      7 C         142.2874  142.2763  169.1740 C.ar    1  UNL1        0.0023
      8 C         142.5908  141.7763  167.7927 C.ar    1  UNL1        0.0191
      9 C         141.6763  140.7849  167.1364 C.ar    1  UNL1        0.0837
     10 N         141.7170  140.1179  165.7935 N.ar    1  UNL1       -0.2882
     11 C         142.7662  140.3191  164.7405 C.ar    1  UNL1        0.0953
     12 C         144.1250  139.6841  164.7171 C.ar    1  UNL1        0.0250
     13 C         144.8394  140.1632  163.4883 C.ar    1  UNL1        0.0131
     14 C         143.9222  141.0943  162.7522 C.ar    1  UNL1        0.0841
     15 S         142.6409  141.1906  163.5262 S.2     1  UNL1       -0.0648
     16 C         144.2319  141.8043  161.4678 C.2     1  UNL1        0.2519
     17 O         144.8497  143.1710  161.4963 O.2     1  UNL1       -0.2696
     18 N         143.9238  141.1479  160.1547 N.am    1  UNL1       -0.3021
     19 H         143.5184  140.2509  160.1359 H       1  UNL1        0.1497
     20 C         144.2335  141.8580  158.8703 C.3     1  UNL1        0.0720
     21 C         145.2254  142.5074  157.9514 C.3     1  UNL1        0.0213
     22 C         143.7780  142.4385  157.5643 C.3     1  UNL1        0.0213
     23 C         138.9373  140.3022  169.9674 C.1     1  UNL1        0.1020
     24 N         137.7194  139.8109  170.6923 N.1     1  UNL1       -0.1908
@<TRIPOS>BOND
     1     1     2    1
     2     2     3   ar
     3     3     4   ar
     4     4     5   ar
     5     5    23    1
     6    23    24    3
     7     5     6   ar
     8     6     7   ar
     9     7     8   ar
    10     8     9   ar
    11     9    10   ar
    12    10    11    1
    13    11    12   ar
    14    12    13   ar
    15    13    14   ar
    16    14    16    1
    17    16    17    2
    18    16    18   am
    19    18    20    1
    20    20    21    1
    21    21    22    1
    22    14    15   ar
    23    10     2   ar
    24    15    11   ar
    25     9     4   ar
    26    22    20    1
    27    18    19    1
@<TRIPOS>MOLECULE
*****
 24 27 0 0 0
SMALL
GASTEIGER

@<TRIPOS>ATOM
      1 C         139.0965  138.4815  164.3741 C.3     1  UNL1        0.0722
      2 C         139.4426  139.3720  165.5305 C.ar    1  UNL1        0.1250
      3 N         138.8830  139.2721  166.9186 N.ar    1  UNL1       -0.2299
      4 C         139.5036  140.3572  167.7478 C.ar    1  UNL1        0.1082
      5 C         139.3317  140.7431  169.1870 C.ar    1  UNL1        0.0875
      6 C         140.1030  141.8995  169.7506 C.ar    1  UNL1        0.0119
      7 C         141.0462  142.6700  168.8750 C.ar    1  UNL1        0.0023
      8 C         141.2181  142.2841  167.4358 C.ar    1  UNL1        0.0191
      9 C         140.4468  141.1277  166.8722 C.ar    1  UNL1        0.0837
     10 N         140.4091  140.5188  165.5018 N.ar    1  UNL1       -0.2882
     11 C         141.1992  140.9764  164.3117 C.ar    1  UNL1        0.0953
     12 C         142.4238  140.3106  163.7575 C.ar    1  UNL1        0.0250
     13 C         142.8848  141.1029  162.5701 C.ar    1  UNL1        0.0131
     14 C         141.9452  142.2583  162.3905 C.ar    1  UNL1        0.0841
     15 S         140.9035  142.1800  163.4669 S.2     1  UNL1       -0.0648
     16 C         142.0322  143.3075  161.3222 C.2     1  UNL1        0.2519
     17 O         143.2328  144.2036  161.2469 O.2     1  UNL1       -0.2696
     18 N         140.9185  143.4609  160.3292 N.am    1  UNL1       -0.3021
     19 H         140.1305  142.8728  160.3786 H       1  UNL1        0.1497
     20 C         141.0054  144.5102  159.2608 C.3     1  UNL1        0.0720
     21 C         141.7930  145.2253  158.2033 C.3     1  UNL1        0.0213
     22 C         140.3683  145.6126  158.4679 C.3     1  UNL1        0.0213
     23 C         138.3885  139.9726  170.0627 C.1     1  UNL1        0.1020
     24 N         137.4453  139.2021  170.9383 N.1     1  UNL1       -0.1908
@<TRIPOS>BOND
     1     1     2    1
     2     2     3   ar
     3     3     4   ar
     4     4     5   ar
     5     5    23    1
     6    23    24    3
     7     5     6   ar
     8     6     7   ar
     9     7     8   ar
    10     8     9   ar
    11     9    10   ar
    12    10    11    1
    13    11    12   ar
    14    12    13   ar
    15    13    14   ar
    16    14    16    1
    17    16    17    2
    18    16    18   am
    19    18    20    1
    20    20    21    1
    21    21    22    1
    22    14    15   ar
    23    10     2   ar
    24    15    11   ar
    25     9     4   ar
    26    22    20    1
    27    18    19    1
@<TRIPOS>MOLECULE
*****
 24 27 0 0 0
SMALL
GASTEIGER

@<TRIPOS>ATOM
      1 C         139.8105  143.2480  166.1686 C.3     1  UNL1        0.0722
      2 C         140.0859  141.8713  165.6403 C.ar    1  UNL1        0.1250
      3 N         139.5024  141.2716  164.3954 N.ar    1  UNL1       -0.2299
      4 C         140.0491  139.8824  164.2499 C.ar    1  UNL1        0.1082
      5 C         139.8269  138.8197  163.2149 C.ar    1  UNL1        0.0875
      6 C         140.5261  137.4981  163.3349 C.ar    1  UNL1        0.0119
      7 C         141.4475  137.2392  164.4898 C.ar    1  UNL1        0.0023
      8 C         141.6697  138.3019  165.5248 C.ar    1  UNL1        0.0191
      9 C         140.9705  139.6235  165.4048 C.ar    1  UNL1        0.0837
     10 N         140.9932  140.8527  166.2642 N.ar    1  UNL1       -0.2882
     11 C         141.7844  141.0319  167.5259 C.ar    1  UNL1        0.0953
     12 C         142.1318  139.9537  168.5093 C.ar    1  UNL1        0.0250
     13 C         142.9293  140.5761  169.6169 C.ar    1  UNL1        0.0131
     14 C         143.0747  142.0388  169.3181 C.ar    1  UNL1        0.0841
     15 S         142.3672  142.3204  168.0258 S.2     1  UNL1       -0.0648
     16 C         143.8003  143.0435  170.1631 C.2     1  UNL1        0.2519
     17 O         143.0327  143.9341  171.0946 O.2     1  UNL1       -0.2696
     18 N         145.2934  143.1575  170.0768 N.am    1  UNL1       -0.3021
     19 H         145.7972  142.5730  169.4654 H       1  UNL1        0.1497
     20 C         146.0190  144.1622  170.9219 C.3     1  UNL1        0.0720
     21 C         146.0046  145.4020  171.7660 C.3     1  UNL1        0.0213
     22 C         147.2901  144.6625  171.5415 C.3     1  UNL1        0.0213
     23 C         138.9055  139.0786  162.0599 C.1     1  UNL1        0.1020
     24 N         137.9841  139.3375  160.9049 N.1     1  UNL1       -0.1908
@<TRIPOS>BOND
     1     1     2    1
     2     2     3   ar
     3     3     4   ar
     4     4     5   ar
     5     5    23    1
     6    23    24    3
     7     5     6   ar
     8     6     7   ar
     9     7     8   ar
    10     8     9   ar
    11     9    10   ar
    12    10    11    1
    13    11    12   ar
    14    12    13   ar
    15    13    14   ar
    16    14    16    1
    17    16    17    2
    18    16    18   am
    19    18    20    1
    20    20    21    1
    21    21    22    1
    22    14    15   ar
    23    10     2   ar
    24    15    11   ar
    25     9     4   ar
    26    22    20    1
    27    18    19    1
