@<TRIPOS>MOLECULE
*****
 35 39 0 0 0
SMALL
GASTEIGER

@<TRIPOS>ATOM
      1 C         139.4889  143.9331  156.7883 C.ar    1  UNL1        0.1321
      2 N         140.0570  144.8530  155.7486 N.ar    1  UNL1       -0.2093
      3 C         141.0970  145.8645  156.1299 C.ar    1  UNL1        0.1997
      4 N         141.5688  145.9561  157.5508 N.ar    1  UNL1       -0.2285
      5 C         141.0007  145.0361  158.5905 C.ar    1  UNL1        0.0628
      6 C         139.9608  144.0247  158.2092 C.ar    1  UNL1        0.0430
      7 C         139.3926  143.1047  159.2489 C.3     1  UNL1        0.1244
      8 N         139.8645  143.1962  160.6698 N.am    1  UNL1       -0.2714
      9 C         139.2964  142.2763  161.7095 C.2     1  UNL1        0.2493
     10 O         138.2564  141.2647  161.3283 O.2     1  UNL1       -0.2699
     11 C         140.9045  144.2078  161.0510 C.3     1  UNL1        0.1003
     12 C         141.4726  145.1277  160.0114 C.3     1  UNL1        0.0672
     13 C         136.3690  140.8985  155.6447 C.3     1  UNL1        0.0610
     14 C         137.7473  140.4487  156.0291 C.3     1  UNL1        0.0288
     15 C         138.7873  141.4602  156.4103 C.3     1  UNL1        0.0926
     16 N         138.4489  142.9215  156.4071 N.pl3   1  UNL1       -0.2934
     17 C         137.0706  143.3714  156.0227 C.3     1  UNL1        0.0926
     18 C         136.0306  142.3599  155.6415 C.3     1  UNL1        0.0288
     19 C         135.3290  139.8871  155.2635 C.2     1  UNL1        0.1503
     20 O         135.7310  138.4719  154.9706 O.2     1  UNL1       -0.2961
     21 C         133.8871  140.2907  155.1753 C.3     1  UNL1        0.0645
     22 C         133.1697  139.2141  157.4283 C.3     1  UNL1        0.0005
     23 C         133.0359  140.3076  156.4103 C.3     1  UNL1        0.0077
     24 C         139.7683  142.3679  163.1304 C.ar    1  UNL1        0.0536
     25 C         140.9162  141.5218  163.5955 C.ar    1  UNL1        0.0045
     26 C         141.3881  141.6134  165.0164 C.ar    1  UNL1        0.0001
     27 C         140.7120  142.5510  165.9722 C.ar    1  UNL1        0.0000
     28 C         139.5639  143.3971  165.5072 C.ar    1  UNL1        0.0001
     29 C         139.0921  143.3055  164.0863 C.ar    1  UNL1        0.0045
     30 C         141.1838  142.6425  167.3931 C.ar    1  UNL1        0.0000
     31 C         142.5570  142.1630  167.7598 C.ar    1  UNL1        0.0000
     32 C         143.0288  142.2546  169.1807 C.ar    1  UNL1        0.0000
     33 C         142.1275  142.8257  170.2349 C.ar    1  UNL1        0.0000
     34 C         140.7543  143.3052  169.8683 C.ar    1  UNL1        0.0000
     35 C         140.2824  143.2136  168.4474 C.ar    1  UNL1        0.0000
@<TRIPOS>BOND
     1    22    23    1
     2    23    21    1
     3    21    19    1
     4    19    20    2
     5    19    13    1
     6    13    14    1
     7    14    15    1
     8    15    16    1
     9    16     1    1
    10     1     2   ar
    11     2     3   ar
    12     3     4   ar
    13     4     5   ar
    14     5     6   ar
    15     6     7    1
    16     7     8    1
    17     8     9   am
    18     9    10    2
    19     9    24    1
    20    24    25   ar
    21    25    26   ar
    22    26    27   ar
    23    27    30    1
    24    30    31   ar
    25    31    32   ar
    26    32    33   ar
    27    33    34   ar
    28    34    35   ar
    29    27    28   ar
    30    28    29   ar
    31     8    11    1
    32    11    12    1
    33    16    17    1
    34    17    18    1
    35    18    13    1
    36     6     1   ar
    37    29    24   ar
    38    12     5    1
    39    35    30   ar
@<TRIPOS>MOLECULE
*****
 35 39 0 0 0
SMALL
GASTEIGER

@<TRIPOS>ATOM
      1 C         139.4766  142.7726  164.2250 C.ar    1  UNL1        0.1321
      2 N         138.2040  143.5303  164.4626 N.ar    1  UNL1       -0.2093
      3 C         137.5841  144.3228  163.3501 C.ar    1  UNL1        0.1997
      4 N         138.2369  144.3576  162.0000 N.ar    1  UNL1       -0.2285
      5 C         139.5094  143.6000  161.7624 C.ar    1  UNL1        0.0628
      6 C         140.1293  142.8075  162.8749 C.ar    1  UNL1        0.0430
      7 C         141.4019  142.0498  162.6373 C.3     1  UNL1        0.1244
      8 N         142.0546  142.0847  161.2872 N.am    1  UNL1       -0.2714
      9 C         143.3272  141.3270  161.0496 C.2     1  UNL1        0.2493
     10 O         143.9471  140.5344  162.1621 O.2     1  UNL1       -0.2699
     11 C         141.4347  142.8772  160.1747 C.3     1  UNL1        0.1003
     12 C         140.1622  143.6349  160.4123 C.3     1  UNL1        0.0672
     13 C         141.3362  140.3949  167.5624 C.3     1  UNL1        0.0610
     14 C         141.7576  141.8154  167.3284 C.3     1  UNL1        0.0288
     15 C         141.1377  142.6079  166.2159 C.3     1  UNL1        0.0926
     16 N         140.0965  141.9800  165.3375 N.pl3   1  UNL1       -0.2934
     17 C         139.6751  140.5596  165.5715 C.3     1  UNL1        0.0926
     18 C         140.2950  139.7670  166.6840 C.3     1  UNL1        0.0288
     19 C         141.9561  139.6023  168.6749 C.2     1  UNL1        0.1503
     20 O         143.1963  138.7974  168.4217 O.2     1  UNL1       -0.2961
     21 C         141.3358  139.6147  170.0405 C.3     1  UNL1        0.0645
     22 C         138.8327  140.3100  170.0717 C.3     1  UNL1        0.0005
     23 C         140.2700  140.6171  170.3712 C.3     1  UNL1        0.0077
     24 C         143.9799  141.3619  159.6995 C.ar    1  UNL1        0.0536
     25 C         144.8912  142.4965  159.3361 C.ar    1  UNL1        0.0045
     26 C         145.5439  142.5314  157.9860 C.ar    1  UNL1        0.0001
     27 C         145.2854  141.4316  156.9994 C.ar    1  UNL1        0.0000
     28 C         144.3740  140.2969  157.3627 C.ar    1  UNL1        0.0001
     29 C         143.7213  140.2620  158.7128 C.ar    1  UNL1        0.0045
     30 C         145.9381  141.4665  155.6493 C.ar    1  UNL1        0.0000
     31 C         147.2938  142.0875  155.4875 C.ar    1  UNL1        0.0000
     32 C         147.9466  142.1224  154.1374 C.ar    1  UNL1        0.0000
     33 C         147.2435  141.5363  152.9491 C.ar    1  UNL1        0.0000
     34 C         145.8877  140.9152  153.1108 C.ar    1  UNL1        0.0000
     35 C         145.2350  140.8803  154.4609 C.ar    1  UNL1        0.0000
@<TRIPOS>BOND
     1    22    23    1
     2    23    21    1
     3    21    19    1
     4    19    20    2
     5    19    13    1
     6    13    14    1
     7    14    15    1
     8    15    16    1
     9    16     1    1
    10     1     2   ar
    11     2     3   ar
    12     3     4   ar
    13     4     5   ar
    14     5     6   ar
    15     6     7    1
    16     7     8    1
    17     8     9   am
    18     9    10    2
    19     9    24    1
    20    24    25   ar
    21    25    26   ar
    22    26    27   ar
    23    27    30    1
    24    30    31   ar
    25    31    32   ar
    26    32    33   ar
    27    33    34   ar
    28    34    35   ar
    29    27    28   ar
    30    28    29   ar
    31     8    11    1
    32    11    12    1
    33    16    17    1
    34    17    18    1
    35    18    13    1
    36     6     1   ar
    37    29    24   ar
    38    12     5    1
    39    35    30   ar
@<TRIPOS>MOLECULE
*****
 35 39 0 0 0
SMALL
GASTEIGER

@<TRIPOS>ATOM
      1 C         140.7470  144.0221  163.0081 C.ar    1  UNL1        0.1321
      2 N         140.3450  145.4670  162.9853 N.ar    1  UNL1       -0.2093
      3 C         139.8818  146.0965  161.7050 C.ar    1  UNL1        0.1997
      4 N         139.8206  145.2811  160.4475 N.ar    1  UNL1       -0.2285
      5 C         140.2226  143.8362  160.4703 C.ar    1  UNL1        0.0628
      6 C         140.6858  143.2067  161.7505 C.ar    1  UNL1        0.0430
      7 C         141.0879  141.7617  161.7734 C.3     1  UNL1        0.1244
      8 N         141.0267  140.9463  160.5158 N.am    1  UNL1       -0.2714
      9 C         141.4288  139.5014  160.5386 C.2     1  UNL1        0.2493
     10 O         141.8920  138.8718  161.8189 O.2     1  UNL1       -0.2699
     11 C         140.5635  141.5758  159.2355 C.3     1  UNL1        0.1003
     12 C         140.1614  143.0207  159.2128 C.3     1  UNL1        0.0672
     13 C         142.1367  142.1335  166.8490 C.3     1  UNL1        0.0610
     14 C         143.1407  142.6276  165.8500 C.3     1  UNL1        0.0288
     15 C         142.6774  143.2572  164.5696 C.3     1  UNL1        0.0926
     16 N         141.2103  143.3926  164.2884 N.pl3   1  UNL1       -0.2934
     17 C         140.2064  142.8985  165.2874 C.3     1  UNL1        0.0926
     18 C         140.6695  142.2689  166.5676 C.3     1  UNL1        0.0288
     19 C         142.5999  141.5040  168.1292 C.2     1  UNL1        0.1503
     20 O         142.4905  140.0199  168.3178 O.2     1  UNL1       -0.2961
     21 C         143.1726  142.3585  169.2209 C.3     1  UNL1        0.0645
     22 C         141.0344  143.6322  169.9667 C.3     1  UNL1        0.0005
     23 C         142.2834  142.8768  170.3122 C.3     1  UNL1        0.0077
     24 C         141.3676  138.6860  159.2811 C.ar    1  UNL1        0.0536
     25 C         140.0500  138.4477  158.6051 C.ar    1  UNL1        0.0045
     26 C         139.9888  137.6323  157.3476 C.ar    1  UNL1        0.0001
     27 C         141.2452  137.0551  156.7661 C.ar    1  UNL1        0.0000
     28 C         142.5629  137.2934  157.4421 C.ar    1  UNL1        0.0001
     29 C         142.6241  138.1088  158.6996 C.ar    1  UNL1        0.0045
     30 C         141.1840  136.2397  155.5086 C.ar    1  UNL1        0.0000
     31 C         141.8502  134.8970  155.4522 C.ar    1  UNL1        0.0000
     32 C         141.7891  134.0815  154.1947 C.ar    1  UNL1        0.0000
     33 C         141.0617  134.6088  152.9935 C.ar    1  UNL1        0.0000
     34 C         140.3954  135.9516  153.0499 C.ar    1  UNL1        0.0000
     35 C         140.4566  136.7670  154.3074 C.ar    1  UNL1        0.0000
@<TRIPOS>BOND
     1    22    23    1
     2    23    21    1
     3    21    19    1
     4    19    20    2
     5    19    13    1
     6    13    14    1
     7    14    15    1
     8    15    16    1
     9    16     1    1
    10     1     2   ar
    11     2     3   ar
    12     3     4   ar
    13     4     5   ar
    14     5     6   ar
    15     6     7    1
    16     7     8    1
    17     8     9   am
    18     9    10    2
    19     9    24    1
    20    24    25   ar
    21    25    26   ar
    22    26    27   ar
    23    27    30    1
    24    30    31   ar
    25    31    32   ar
    26    32    33   ar
    27    33    34   ar
    28    34    35   ar
    29    27    28   ar
    30    28    29   ar
    31     8    11    1
    32    11    12    1
    33    16    17    1
    34    17    18    1
    35    18    13    1
    36     6     1   ar
    37    29    24   ar
    38    12     5    1
    39    35    30   ar
@<TRIPOS>MOLECULE
*****
 35 39 0 0 0
SMALL
GASTEIGER

@<TRIPOS>ATOM
      1 C         141.5047  139.8887  156.8240 C.ar    1  UNL1        0.1321
      2 N         141.5301  140.8478  155.6711 N.ar    1  UNL1       -0.2093
      3 C         141.3366  142.3156  155.9121 C.ar    1  UNL1        0.1997
      4 N         141.1177  142.8242  157.3062 N.ar    1  UNL1       -0.2285
      5 C         141.0923  141.8651  158.4591 C.ar    1  UNL1        0.0628
      6 C         141.2858  140.3974  158.2181 C.ar    1  UNL1        0.0430
      7 C         141.2604  139.4382  159.3711 C.3     1  UNL1        0.1244
      8 N         141.0415  139.9468  160.7651 N.am    1  UNL1       -0.2714
      9 C         141.0162  138.9877  161.9181 C.2     1  UNL1        0.2493
     10 O         141.2097  137.5198  161.6771 O.2     1  UNL1       -0.2699
     11 C         140.8480  141.4147  161.0062 C.3     1  UNL1        0.1003
     12 C         140.8734  142.3738  159.8532 C.3     1  UNL1        0.0672
     13 C         142.0853  135.4852  156.1010 C.3     1  UNL1        0.0610
     14 C         140.7656  136.1282  155.7930 C.3     1  UNL1        0.0288
     15 C         140.5721  137.5961  156.0340 C.3     1  UNL1        0.0926
     16 N         141.6982  138.4208  156.5830 N.pl3   1  UNL1       -0.2934
     17 C         143.0180  137.7778  156.8910 C.3     1  UNL1        0.0926
     18 C         143.2115  136.3101  156.6500 C.3     1  UNL1        0.0288
     19 C         142.2789  134.0174  155.8600 C.2     1  UNL1        0.1503
     20 O         141.1254  133.1736  155.4045 O.2     1  UNL1       -0.2961
     21 C         143.6259  133.3934  156.0745 C.3     1  UNL1        0.0645
     22 C         145.2063  132.3967  157.8799 C.3     1  UNL1        0.0005
     23 C         143.8513  132.4784  157.2416 C.3     1  UNL1        0.0077
     24 C         140.7973  139.4964  163.3122 C.ar    1  UNL1        0.0536
     25 C         139.4217  139.4775  163.9101 C.ar    1  UNL1        0.0045
     26 C         139.2028  139.9861  165.3041 C.ar    1  UNL1        0.0001
     27 C         140.3595  140.5137  166.1002 C.ar    1  UNL1        0.0000
     28 C         141.7351  140.5326  165.5023 C.ar    1  UNL1        0.0001
     29 C         141.9540  140.0239  164.1083 C.ar    1  UNL1        0.0045
     30 C         140.1406  141.0223  167.4943 C.ar    1  UNL1        0.0000
     31 C         139.4449  140.1611  168.5063 C.ar    1  UNL1        0.0000
     32 C         139.2260  140.6697  169.9003 C.ar    1  UNL1        0.0000
     33 C         139.7028  142.0397  170.2824 C.ar    1  UNL1        0.0000
     34 C         140.3985  142.9010  169.2703 C.ar    1  UNL1        0.0000
     35 C         140.6174  142.3923  167.8763 C.ar    1  UNL1        0.0000
@<TRIPOS>BOND
     1    22    23    1
     2    23    21    1
     3    21    19    1
     4    19    20    2
     5    19    13    1
     6    13    14    1
     7    14    15    1
     8    15    16    1
     9    16     1    1
    10     1     2   ar
    11     2     3   ar
    12     3     4   ar
    13     4     5   ar
    14     5     6   ar
    15     6     7    1
    16     7     8    1
    17     8     9   am
    18     9    10    2
    19     9    24    1
    20    24    25   ar
    21    25    26   ar
    22    26    27   ar
    23    27    30    1
    24    30    31   ar
    25    31    32   ar
    26    32    33   ar
    27    33    34   ar
    28    34    35   ar
    29    27    28   ar
    30    28    29   ar
    31     8    11    1
    32    11    12    1
    33    16    17    1
    34    17    18    1
    35    18    13    1
    36     6     1   ar
    37    29    24   ar
    38    12     5    1
    39    35    30   ar
@<TRIPOS>MOLECULE
*****
 35 39 0 0 0
SMALL
GASTEIGER

@<TRIPOS>ATOM
      1 C         142.5648  142.8013  163.9280 C.ar    1  UNL1        0.1321
      2 N         143.2808  144.0924  164.1929 N.ar    1  UNL1       -0.2093
      3 C         144.0478  144.7641  163.0927 C.ar    1  UNL1        0.1997
      4 N         144.0988  144.1446  161.7276 N.ar    1  UNL1       -0.2285
      5 C         143.3828  142.8535  161.4626 C.ar    1  UNL1        0.0628
      6 C         142.6158  142.1818  162.5628 C.ar    1  UNL1        0.0430
      7 C         141.8998  140.8906  162.2979 C.3     1  UNL1        0.1244
      8 N         141.9508  140.2711  160.9328 N.am    1  UNL1       -0.2714
      9 C         141.2348  138.9800  160.6678 C.2     1  UNL1        0.2493
     10 O         140.4677  138.3082  161.7680 O.2     1  UNL1       -0.2699
     11 C         142.7178  140.9429  159.8325 C.3     1  UNL1        0.1003
     12 C         143.4338  142.2340  160.0975 C.3     1  UNL1        0.0672
     13 C         140.2637  140.7860  167.2287 C.3     1  UNL1        0.0610
     14 C         139.5752  141.7636  166.3230 C.3     1  UNL1        0.0288
     15 C         140.3422  142.4353  165.2227 C.3     1  UNL1        0.0926
     16 N         141.7977  142.1295  165.0282 N.pl3   1  UNL1       -0.2934
     17 C         142.4863  141.1520  165.9339 C.3     1  UNL1        0.0926
     18 C         141.7193  140.4802  167.0341 C.3     1  UNL1        0.0288
     19 C         139.4968  140.1143  168.3289 C.2     1  UNL1        0.1503
     20 O         138.4669  139.0748  167.9988 O.2     1  UNL1       -0.2961
     21 C         139.7596  140.4820  169.7591 C.3     1  UNL1        0.0645
     22 C         140.4109  142.9905  169.9412 C.3     1  UNL1        0.0005
     23 C         139.4610  141.8698  170.2438 C.3     1  UNL1        0.0077
     24 C         141.2858  138.3605  159.3026 C.ar    1  UNL1        0.0536
     25 C         142.5466  137.7042  158.8235 C.ar    1  UNL1        0.0045
     26 C         142.5976  137.0847  157.4583 C.ar    1  UNL1        0.0001
     27 C         141.3878  137.1216  156.5723 C.ar    1  UNL1        0.0000
     28 C         140.1269  137.7779  157.0515 C.ar    1  UNL1        0.0001
     29 C         140.0759  138.3974  158.4166 C.ar    1  UNL1        0.0045
     30 C         141.4388  136.5021  155.2072 C.ar    1  UNL1        0.0000
     31 C         142.2257  135.2450  154.9829 C.ar    1  UNL1        0.0000
     32 C         142.2767  134.6255  153.6178 C.ar    1  UNL1        0.0000
     33 C         141.5408  135.2632  152.4768 C.ar    1  UNL1        0.0000
     34 C         140.7538  136.5204  152.7010 C.ar    1  UNL1        0.0000
     35 C         140.7028  137.1398  154.0662 C.ar    1  UNL1        0.0000
@<TRIPOS>BOND
     1    22    23    1
     2    23    21    1
     3    21    19    1
     4    19    20    2
     5    19    13    1
     6    13    14    1
     7    14    15    1
     8    15    16    1
     9    16     1    1
    10     1     2   ar
    11     2     3   ar
    12     3     4   ar
    13     4     5   ar
    14     5     6   ar
    15     6     7    1
    16     7     8    1
    17     8     9   am
    18     9    10    2
    19     9    24    1
    20    24    25   ar
    21    25    26   ar
    22    26    27   ar
    23    27    30    1
    24    30    31   ar
    25    31    32   ar
    26    32    33   ar
    27    33    34   ar
    28    34    35   ar
    29    27    28   ar
    30    28    29   ar
    31     8    11    1
    32    11    12    1
    33    16    17    1
    34    17    18    1
    35    18    13    1
    36     6     1   ar
    37    29    24   ar
    38    12     5    1
    39    35    30   ar
@<TRIPOS>MOLECULE
*****
 35 39 0 0 0
SMALL
GASTEIGER

@<TRIPOS>ATOM
      1 C         138.8346  142.6026  156.1228 C.ar    1  UNL1        0.1321
      2 N         138.5625  141.5984  155.0423 N.ar    1  UNL1       -0.2093
      3 C         138.3944  140.1491  155.3904 C.ar    1  UNL1        0.1997
      4 N         138.4984  139.7040  156.8190 N.ar    1  UNL1       -0.2285
      5 C         138.7705  140.7081  157.8995 C.ar    1  UNL1        0.0628
      6 C         138.9386  142.1574  157.5514 C.ar    1  UNL1        0.0430
      7 C         139.2108  143.1617  158.6320 C.3     1  UNL1        0.1244
      8 N         139.3148  142.7165  160.0606 N.am    1  UNL1       -0.2714
      9 C         139.5869  143.7207  161.1411 C.2     1  UNL1        0.2493
     10 O         139.7551  145.1701  160.7931 O.2     1  UNL1       -0.2699
     11 C         139.1466  141.2672  160.4087 C.3     1  UNL1        0.1003
     12 C         138.8745  140.2630  159.3282 C.3     1  UNL1        0.0672
     13 C         139.3390  146.9507  155.0785 C.3     1  UNL1        0.0610
     14 C         140.5179  146.1502  155.5470 C.3     1  UNL1        0.0288
     15 C         140.3498  144.7008  155.8950 C.3     1  UNL1        0.0926
     16 N         139.0028  144.0520  155.7747 N.pl3   1  UNL1       -0.2934
     17 C         137.8239  144.8524  155.3062 C.3     1  UNL1        0.0926
     18 C         137.9920  146.3017  154.9581 C.3     1  UNL1        0.0288
     19 C         139.5071  148.4000  154.7304 C.2     1  UNL1        0.1503
     20 O         140.4552  148.8045  153.6407 O.2     1  UNL1       -0.2961
     21 C         138.7271  149.4447  155.4720 C.3     1  UNL1        0.0645
     22 C         138.4979  151.9847  154.9761 C.3     1  UNL1        0.0005
     23 C         139.2601  150.8427  155.5801 C.3     1  UNL1        0.0077
     24 C         139.6909  143.2755  162.5698 C.ar    1  UNL1        0.0536
     25 C         140.9944  142.7569  163.1008 C.ar    1  UNL1        0.0045
     26 C         141.0984  142.3118  164.5294 C.ar    1  UNL1        0.0001
     27 C         139.8989  142.3853  165.4271 C.ar    1  UNL1        0.0000
     28 C         138.5954  142.9039  164.8961 C.ar    1  UNL1        0.0001
     29 C         138.4914  143.3491  163.4675 C.ar    1  UNL1        0.0045
     30 C         140.0029  141.9401  166.8557 C.ar    1  UNL1        0.0000
     31 C         140.3935  142.9217  167.9206 C.ar    1  UNL1        0.0000
     32 C         140.4975  142.4765  169.3492 C.ar    1  UNL1        0.0000
     33 C         140.2109  141.0498  169.7130 C.ar    1  UNL1        0.0000
     34 C         139.8203  140.0682  168.6481 C.ar    1  UNL1        0.0000
     35 C         139.7163  140.5133  167.2195 C.ar    1  UNL1        0.0000
@<TRIPOS>BOND
     1    22    23    1
     2    23    21    1
     3    21    19    1
     4    19    20    2
     5    19    13    1
     6    13    14    1
     7    14    15    1
     8    15    16    1
     9    16     1    1
    10     1     2   ar
    11     2     3   ar
    12     3     4   ar
    13     4     5   ar
    14     5     6   ar
    15     6     7    1
    16     7     8    1
    17     8     9   am
    18     9    10    2
    19     9    24    1
    20    24    25   ar
    21    25    26   ar
    22    26    27   ar
    23    27    30    1
    24    30    31   ar
    25    31    32   ar
    26    32    33   ar
    27    33    34   ar
    28    34    35   ar
    29    27    28   ar
    30    28    29   ar
    31     8    11    1
    32    11    12    1
    33    16    17    1
    34    17    18    1
    35    18    13    1
    36     6     1   ar
    37    29    24   ar
    38    12     5    1
    39    35    30   ar
@<TRIPOS>MOLECULE
*****
 35 39 0 0 0
SMALL
GASTEIGER

@<TRIPOS>ATOM
      1 C         138.3215  140.4039  158.5628 C.ar    1  UNL1        0.1321
      2 N         136.9590  140.5133  157.9452 N.ar    1  UNL1       -0.2093
      3 C         136.8146  140.9663  156.5225 C.ar    1  UNL1        0.1997
      4 N         138.0327  141.3098  155.7175 N.ar    1  UNL1       -0.2285
      5 C         139.3953  141.2005  156.3351 C.ar    1  UNL1        0.0628
      6 C         139.5396  140.7475  157.7577 C.ar    1  UNL1        0.0430
      7 C         140.9022  140.6381  158.3754 C.3     1  UNL1        0.1244
      8 N         142.1204  140.9817  157.5704 N.am    1  UNL1       -0.2714
      9 C         143.4829  140.8723  158.1880 C.2     1  UNL1        0.2493
     10 O         143.6274  140.4193  159.6107 O.2     1  UNL1       -0.2699
     11 C         141.9759  141.4347  156.1477 C.3     1  UNL1        0.1003
     12 C         140.6134  141.5440  155.5301 C.3     1  UNL1        0.0672
     13 C         138.7548  139.0450  162.8308 C.3     1  UNL1        0.0610
     14 C         138.2438  140.4229  162.5307 C.3     1  UNL1        0.0288
     15 C         138.0994  140.8759  161.1080 C.3     1  UNL1        0.0926
     16 N         138.4659  139.9509  159.9855 N.pl3   1  UNL1       -0.2934
     17 C         138.9769  138.5730  160.2856 C.3     1  UNL1        0.0926
     18 C         139.1214  138.1200  161.7082 C.3     1  UNL1        0.0288
     19 C         138.8993  138.5920  164.2534 C.2     1  UNL1        0.1503
     20 O         138.2229  139.3527  165.3551 O.2     1  UNL1       -0.2961
     21 C         139.7201  137.3782  164.5743 C.3     1  UNL1        0.0645
     22 C         141.8273  138.7880  165.1422 C.3     1  UNL1        0.0005
     23 C         141.2102  137.4932  164.7035 C.3     1  UNL1        0.0077
     24 C         144.7011  141.2159  157.3830 C.ar    1  UNL1        0.0536
     25 C         145.5446  142.3957  157.7655 C.ar    1  UNL1        0.0045
     26 C         146.7627  142.7393  156.9604 C.ar    1  UNL1        0.0001
     27 C         147.1374  141.9030  155.7729 C.ar    1  UNL1        0.0000
     28 C         146.2938  140.7231  155.3903 C.ar    1  UNL1        0.0001
     29 C         145.0757  140.3795  156.1954 C.ar    1  UNL1        0.0045
     30 C         148.3555  142.2466  154.9679 C.ar    1  UNL1        0.0000
     31 C         148.2490  143.2035  153.8177 C.ar    1  UNL1        0.0000
     32 C         149.4672  143.5471  153.0127 C.ar    1  UNL1        0.0000
     33 C         150.7918  142.9338  153.3578 C.ar    1  UNL1        0.0000
     34 C         150.8983  141.9768  154.5080 C.ar    1  UNL1        0.0000
     35 C         149.6802  141.6332  155.3131 C.ar    1  UNL1        0.0000
@<TRIPOS>BOND
     1    22    23    1
     2    23    21    1
     3    21    19    1
     4    19    20    2
     5    19    13    1
     6    13    14    1
     7    14    15    1
     8    15    16    1
     9    16     1    1
    10     1     2   ar
    11     2     3   ar
    12     3     4   ar
    13     4     5   ar
    14     5     6   ar
    15     6     7    1
    16     7     8    1
    17     8     9   am
    18     9    10    2
    19     9    24    1
    20    24    25   ar
    21    25    26   ar
    22    26    27   ar
    23    27    30    1
    24    30    31   ar
    25    31    32   ar
    26    32    33   ar
    27    33    34   ar
    28    34    35   ar
    29    27    28   ar
    30    28    29   ar
    31     8    11    1
    32    11    12    1
    33    16    17    1
    34    17    18    1
    35    18    13    1
    36     6     1   ar
    37    29    24   ar
    38    12     5    1
    39    35    30   ar
@<TRIPOS>MOLECULE
*****
 35 39 0 0 0
SMALL
GASTEIGER

@<TRIPOS>ATOM
      1 C         139.3389  143.7192  162.2097 C.ar    1  UNL1        0.1321
      2 N         138.5114  144.9357  162.5017 N.ar    1  UNL1       -0.2093
      3 C         138.7185  146.1917  161.7084 C.ar    1  UNL1        0.1997
      4 N         139.7532  146.2312  160.6230 N.ar    1  UNL1       -0.2285
      5 C         140.5807  145.0147  160.3311 C.ar    1  UNL1        0.0628
      6 C         140.3735  143.7587  161.1244 C.ar    1  UNL1        0.0430
      7 C         141.2011  142.5421  160.8325 C.3     1  UNL1        0.1244
      8 N         142.2357  142.5816  159.7472 N.am    1  UNL1       -0.2714
      9 C         143.0632  141.3651  159.4552 C.2     1  UNL1        0.2493
     10 O         142.8561  140.1090  160.2486 O.2     1  UNL1       -0.2699
     11 C         142.4429  143.8377  158.9538 C.3     1  UNL1        0.1003
     12 C         141.6154  145.0542  159.2458 C.3     1  UNL1        0.0672
     13 C         138.7174  139.9509  164.5898 C.3     1  UNL1        0.0610
     14 C         139.6707  140.9996  165.0811 C.3     1  UNL1        0.0288
     15 C         139.8779  142.2557  164.2877 C.3     1  UNL1        0.0926
     16 N         139.1317  142.4631  163.0031 N.pl3   1  UNL1       -0.2934
     17 C         138.1784  141.4143  162.5118 C.3     1  UNL1        0.0926
     18 C         137.9713  140.1583  163.3051 C.3     1  UNL1        0.0288
     19 C         138.5103  138.6948  165.3830 C.2     1  UNL1        0.1503
     20 O         137.5427  138.6826  166.5292 O.2     1  UNL1       -0.2961
     21 C         139.2707  137.4510  165.0302 C.3     1  UNL1        0.0645
     22 C         141.8429  137.7757  164.8614 C.3     1  UNL1        0.0005
     23 C         140.5167  137.5437  164.2001 C.3     1  UNL1        0.0077
     24 C         144.0979  141.4046  158.3699 C.ar    1  UNL1        0.0536
     25 C         145.1885  142.4336  158.4105 C.ar    1  UNL1        0.0045
     26 C         146.2231  142.4731  157.3252 C.ar    1  UNL1        0.0001
     27 C         146.1672  141.4836  156.1993 C.ar    1  UNL1        0.0000
     28 C         145.0766  140.4545  156.1587 C.ar    1  UNL1        0.0001
     29 C         144.0420  140.4150  157.2440 C.ar    1  UNL1        0.0045
     30 C         147.2019  141.5231  155.1140 C.ar    1  UNL1        0.0000
     31 C         148.6480  141.7152  155.4630 C.ar    1  UNL1        0.0000
     32 C         149.6827  141.7548  154.3777 C.ar    1  UNL1        0.0000
     33 C         149.2713  141.6022  152.9433 C.ar    1  UNL1        0.0000
     34 C         147.8251  141.4100  152.5942 C.ar    1  UNL1        0.0000
     35 C         146.7904  141.3705  153.6796 C.ar    1  UNL1        0.0000
@<TRIPOS>BOND
     1    22    23    1
     2    23    21    1
     3    21    19    1
     4    19    20    2
     5    19    13    1
     6    13    14    1
     7    14    15    1
     8    15    16    1
     9    16     1    1
    10     1     2   ar
    11     2     3   ar
    12     3     4   ar
    13     4     5   ar
    14     5     6   ar
    15     6     7    1
    16     7     8    1
    17     8     9   am
    18     9    10    2
    19     9    24    1
    20    24    25   ar
    21    25    26   ar
    22    26    27   ar
    23    27    30    1
    24    30    31   ar
    25    31    32   ar
    26    32    33   ar
    27    33    34   ar
    28    34    35   ar
    29    27    28   ar
    30    28    29   ar
    31     8    11    1
    32    11    12    1
    33    16    17    1
    34    17    18    1
    35    18    13    1
    36     6     1   ar
    37    29    24   ar
    38    12     5    1
    39    35    30   ar
@<TRIPOS>MOLECULE
*****
 35 39 0 0 0
SMALL
GASTEIGER

@<TRIPOS>ATOM
      1 C         140.0164  139.5769  164.2779 C.ar    1  UNL1        0.1321
      2 N         139.3725  138.2428  164.5137 N.ar    1  UNL1       -0.2093
      3 C         138.7274  137.5097  163.3751 C.ar    1  UNL1        0.1997
      4 N         138.7260  138.1107  162.0008 N.ar    1  UNL1       -0.2285
      5 C         139.3699  139.4448  161.7650 C.ar    1  UNL1        0.0628
      6 C         140.0151  140.1779  162.9036 C.ar    1  UNL1        0.0430
      7 C         140.6590  141.5120  162.6678 C.3     1  UNL1        0.1244
      8 N         140.6576  142.1131  161.2935 N.am    1  UNL1       -0.2714
      9 C         141.3015  143.4471  161.0577 C.2     1  UNL1        0.2493
     10 O         141.9467  144.1803  162.1963 O.2     1  UNL1       -0.2699
     11 C         140.0124  141.3799  160.1549 C.3     1  UNL1        0.1003
     12 C         139.3686  140.0458  160.3907 C.3     1  UNL1        0.0672
     13 C         141.9520  141.7763  167.6936 C.3     1  UNL1        0.0610
     14 C         142.7130  140.7125  166.9592 C.3     1  UNL1        0.0288
     15 C         142.0678  139.9794  165.8206 C.3     1  UNL1        0.0926
     16 N         140.6616  140.3100  165.4165 N.pl3   1  UNL1       -0.2934
     17 C         139.9006  141.3738  166.1508 C.3     1  UNL1        0.0926
     18 C         140.5457  142.1069  167.2894 C.3     1  UNL1        0.0288
     19 C         142.5971  142.5094  168.8321 C.2     1  UNL1        0.1503
     20 O         144.0593  142.8399  168.7788 O.2     1  UNL1       -0.2961
     21 C         141.7801  142.9120  170.0238 C.3     1  UNL1        0.0645
     22 C         140.5418  140.7867  170.8601 C.3     1  UNL1        0.0005
     23 C         141.4962  141.9166  171.1095 C.3     1  UNL1        0.0077
     24 C         141.3002  144.0481  159.6834 C.ar    1  UNL1        0.0536
     25 C         140.2632  145.0659  159.3108 C.ar    1  UNL1        0.0045
     26 C         140.2618  145.6669  157.9365 C.ar    1  UNL1        0.0001
     27 C         141.2975  145.2502  156.9347 C.ar    1  UNL1        0.0000
     28 C         142.3346  144.2324  157.3072 C.ar    1  UNL1        0.0001
     29 C         142.3359  143.6314  158.6815 C.ar    1  UNL1        0.0045
     30 C         141.2962  145.8512  155.5604 C.ar    1  UNL1        0.0000
     31 C         142.2276  145.3231  154.5099 C.ar    1  UNL1        0.0000
     32 C         142.2263  145.9241  153.1356 C.ar    1  UNL1        0.0000
     33 C         141.2935  147.0532  152.8117 C.ar    1  UNL1        0.0000
     34 C         140.3620  147.5814  153.8622 C.ar    1  UNL1        0.0000
     35 C         140.3633  146.9804  155.2365 C.ar    1  UNL1        0.0000
@<TRIPOS>BOND
     1    22    23    1
     2    23    21    1
     3    21    19    1
     4    19    20    2
     5    19    13    1
     6    13    14    1
     7    14    15    1
     8    15    16    1
     9    16     1    1
    10     1     2   ar
    11     2     3   ar
    12     3     4   ar
    13     4     5   ar
    14     5     6   ar
    15     6     7    1
    16     7     8    1
    17     8     9   am
    18     9    10    2
    19     9    24    1
    20    24    25   ar
    21    25    26   ar
    22    26    27   ar
    23    27    30    1
    24    30    31   ar
    25    31    32   ar
    26    32    33   ar
    27    33    34   ar
    28    34    35   ar
    29    27    28   ar
    30    28    29   ar
    31     8    11    1
    32    11    12    1
    33    16    17    1
    34    17    18    1
    35    18    13    1
    36     6     1   ar
    37    29    24   ar
    38    12     5    1
    39    35    30   ar
