@<TRIPOS>MOLECULE
*****
 42 47 0 0 0
SMALL
GASTEIGER

@<TRIPOS>ATOM
      1 C         137.7169  141.1736  163.9868 C.3     1  UNL1        0.0311
      2 C         138.4746  139.9835  163.4772 C.ar    1  UNL1       -0.0192
      3 C         138.6928  139.8080  162.0037 C.ar    1  UNL1        0.0105
      4 C         139.4505  138.6179  161.4941 C.ar    1  UNL1        0.0513
      5 C         139.9899  137.6033  162.4583 C.ar    1  UNL1        0.0147
      6 C         139.7717  137.7788  163.9320 C.ar    1  UNL1        0.0025
      7 C         139.0140  138.9689  164.4414 C.ar    1  UNL1        0.0138
      8 C         138.7957  139.1444  165.9151 C.ar    1  UNL1        0.0843
      9 C         137.7091  138.3777  166.6089 C.ar    1  UNL1        0.1179
     10 N         137.4908  138.5532  168.0824 N.ar    1  UNL1       -0.2248
     11 C         138.3592  139.4955  168.8623 C.ar    1  UNL1        0.1633
     12 C         139.4458  140.2622  168.1685 C.ar    1  UNL1        0.1797
     13 N         140.4518  141.2548  168.6711 N.ar    1  UNL1       -0.2222
     14 C         141.2918  141.6928  167.5081 C.ar    1  UNL1        0.1196
     15 C         140.8050  140.9708  166.2867 C.ar    1  UNL1        0.1023
     16 N         139.6641  140.0867  166.6949 N.ar    1  UNL1       -0.2851
     17 N         138.1408  139.6710  170.3359 N.pl3   1  UNL1       -0.3173
     18 H         138.7712  140.2102  170.8662 H       1  UNL1        0.1482
     19 C         136.9622  139.0249  171.0017 C.3     1  UNL1        0.0706
     20 C         136.2438  137.7897  171.4581 C.3     1  UNL1        0.0212
     21 C         135.6389  139.1411  171.6983 C.3     1  UNL1        0.0212
     22 N         139.6687  138.4424  160.0206 N.am    1  UNL1       -0.2680
     23 C         140.9910  138.8017  159.4101 C.2     1  UNL1        0.3092
     24 O         142.0950  139.3365  160.2734 O.2     1  UNL1       -0.2521
     25 N         141.2093  138.6262  157.9366 N.am    1  UNL1       -0.2533
     26 H         138.9441  138.0914  159.4540 H       1  UNL1        0.1564
     27 H         140.4847  138.2752  157.3701 H       1  UNL1        0.1578
     28 C         142.5316  138.9855  157.3262 C.ar    1  UNL1        0.1380
     29 C         143.2253  140.3102  157.4423 C.ar    1  UNL1        0.0509
     30 C         144.5147  140.2266  156.6804 C.ar    1  UNL1        0.0810
     31 N         144.6178  138.8501  156.0933 N.ar    1  UNL1       -0.1683
     32 N         143.3921  138.0830  156.4925 N.ar    1  UNL1       -0.2162
     33 C         143.0816  136.6629  156.1228 C.ar    1  UNL1        0.0842
     34 C         143.1823  135.5798  157.1558 C.ar    1  UNL1        0.0192
     35 C         142.8717  134.1597  156.7861 C.ar    1  UNL1        0.0015
     36 C         142.4604  133.8225  155.3835 C.ar    1  UNL1        0.0001
     37 C         142.3598  134.9055  154.3506 C.ar    1  UNL1        0.0015
     38 C         142.6703  136.3257  154.7202 C.ar    1  UNL1        0.0192
     39 C         145.5238  141.3264  156.5315 C.3     1  UNL1        0.0372
     40 C         145.0389  141.9443  157.8095 C.3     1  UNL1        0.0060
     41 C         146.0087  140.7085  155.2536 C.3     1  UNL1        0.0060
     42 C         146.5330  142.4262  156.3827 C.3     1  UNL1        0.0060
@<TRIPOS>BOND
     1     1     2    1
     2     2     3   ar
     3     3     4   ar
     4     4    22    1
     5    22    23   am
     6    23    24    2
     7    23    25   am
     8    25    28    1
     9    28    29   ar
    10    29    30   ar
    11    30    39    1
    12    39    40    1
    13    39    41    1
    14    39    42    1
    15    30    31   ar
    16    31    32   ar
    17    32    33    1
    18    33    34   ar
    19    34    35   ar
    20    35    36   ar
    21    36    37   ar
    22    37    38   ar
    23     4     5   ar
    24     5     6   ar
    25     6     7   ar
    26     7     8    1
    27     8     9   ar
    28     9    10   ar
    29    10    11   ar
    30    11    17    1
    31    17    19    1
    32    19    20    1
    33    20    21    1
    34    11    12   ar
    35    12    13   ar
    36    13    14   ar
    37    14    15   ar
    38    15    16   ar
    39     7     2   ar
    40    16     8   ar
    41    32    28   ar
    42    38    33   ar
    43    21    19    1
    44    16    12   ar
    45    22    26    1
    46    25    27    1
    47    17    18    1
@<TRIPOS>MOLECULE
*****
 42 47 0 0 0
SMALL
GASTEIGER

@<TRIPOS>ATOM
      1 C         141.1224  136.9973  164.3265 C.3     1  UNL1        0.0311
      2 C         140.4519  137.9356  163.3673 C.ar    1  UNL1       -0.0192
      3 C         140.5452  137.6915  161.8904 C.ar    1  UNL1        0.0105
      4 C         139.8747  138.6299  160.9312 C.ar    1  UNL1        0.0513
      5 C         139.1108  139.8123  161.4492 C.ar    1  UNL1        0.0147
      6 C         139.0175  140.0565  162.9263 C.ar    1  UNL1        0.0025
      7 C         139.6880  139.1181  163.8854 C.ar    1  UNL1        0.0138
      8 C         139.5947  139.3622  165.3624 C.ar    1  UNL1        0.0843
      9 C         138.3894  138.8974  166.1248 C.ar    1  UNL1        0.1179
     10 N         138.2960  139.1414  167.6017 N.ar    1  UNL1       -0.2248
     11 C         139.4081  139.8503  168.3166 C.ar    1  UNL1        0.1633
     12 C         140.6134  140.3151  167.5543 C.ar    1  UNL1        0.1797
     13 N         141.8570  141.0349  167.9847 N.ar    1  UNL1       -0.2222
     14 C         142.7189  141.2358  166.7736 C.ar    1  UNL1        0.1196
     15 C         142.0080  140.6401  165.5947 C.ar    1  UNL1        0.1023
     16 N         140.7067  140.0710  166.0772 N.ar    1  UNL1       -0.2851
     17 N         139.3147  140.0943  169.7937 N.pl3   1  UNL1       -0.3173
     18 H         138.8963  139.4217  170.3783 H       1  UNL1        0.1482
     19 C         139.8587  141.3632  170.3801 C.3     1  UNL1        0.0706
     20 C         140.8198  142.0647  171.2935 C.3     1  UNL1        0.0212
     21 C         139.8400  142.8596  170.4823 C.3     1  UNL1        0.0212
     22 N         139.9680  138.3858  159.4542 N.am    1  UNL1       -0.2680
     23 C         141.2719  138.5898  158.7412 C.2     1  UNL1        0.3092
     24 O         142.4824  139.0378  159.5053 O.2     1  UNL1       -0.2521
     25 N         141.3652  138.3457  157.2642 N.am    1  UNL1       -0.2533
     26 H         139.1735  138.0917  158.9528 H       1  UNL1        0.1564
     27 H         140.5707  138.0516  156.7627 H       1  UNL1        0.1578
     28 C         142.6691  138.5497  156.5512 C.ar    1  UNL1        0.1380
     29 C         143.3666  139.8618  156.3473 C.ar    1  UNL1        0.0509
     30 C         144.6329  139.6004  155.5870 C.ar    1  UNL1        0.0810
     31 N         144.7180  138.1267  155.3209 N.ar    1  UNL1       -0.1683
     32 N         143.5043  137.4773  155.9168 N.ar    1  UNL1       -0.2162
     33 C         143.1823  136.0126  155.8841 C.ar    1  UNL1        0.0842
     34 C         142.6763  135.3840  154.6197 C.ar    1  UNL1        0.0192
     35 C         142.3543  133.9193  154.5869 C.ar    1  UNL1        0.0015
     36 C         142.5384  133.0832  155.8187 C.ar    1  UNL1        0.0001
     37 C         143.0444  133.7118  157.0832 C.ar    1  UNL1        0.0015
     38 C         143.3663  135.1765  157.1159 C.ar    1  UNL1        0.0192
     39 C         145.6378  140.6318  155.1665 C.3     1  UNL1        0.0372
     40 C         145.5725  140.1210  153.7577 C.3     1  UNL1        0.0060
     41 C         145.7030  141.1425  156.5755 C.3     1  UNL1        0.0060
     42 C         146.6426  141.6631  154.7462 C.3     1  UNL1        0.0060
@<TRIPOS>BOND
     1     1     2    1
     2     2     3   ar
     3     3     4   ar
     4     4    22    1
     5    22    23   am
     6    23    24    2
     7    23    25   am
     8    25    28    1
     9    28    29   ar
    10    29    30   ar
    11    30    39    1
    12    39    40    1
    13    39    41    1
    14    39    42    1
    15    30    31   ar
    16    31    32   ar
    17    32    33    1
    18    33    34   ar
    19    34    35   ar
    20    35    36   ar
    21    36    37   ar
    22    37    38   ar
    23     4     5   ar
    24     5     6   ar
    25     6     7   ar
    26     7     8    1
    27     8     9   ar
    28     9    10   ar
    29    10    11   ar
    30    11    17    1
    31    17    19    1
    32    19    20    1
    33    20    21    1
    34    11    12   ar
    35    12    13   ar
    36    13    14   ar
    37    14    15   ar
    38    15    16   ar
    39     7     2   ar
    40    16     8   ar
    41    32    28   ar
    42    38    33   ar
    43    21    19    1
    44    16    12   ar
    45    22    26    1
    46    25    27    1
    47    17    18    1
@<TRIPOS>MOLECULE
*****
 42 47 0 0 0
SMALL
GASTEIGER

@<TRIPOS>ATOM
      1 C         141.1791  137.0091  164.5278 C.3     1  UNL1        0.0311
      2 C         140.8196  138.0362  163.4954 C.ar    1  UNL1       -0.0192
      3 C         140.8180  137.6692  162.0411 C.ar    1  UNL1        0.0105
      4 C         140.4584  138.6963  161.0087 C.ar    1  UNL1        0.0513
      5 C         140.1005  140.0905  161.4308 C.ar    1  UNL1        0.0147
      6 C         140.1021  140.4576  162.8852 C.ar    1  UNL1        0.0025
      7 C         140.4617  139.4305  163.9175 C.ar    1  UNL1        0.0138
      8 C         140.4633  139.7975  165.3719 C.ar    1  UNL1        0.0843
      9 C         141.5868  140.6143  165.9381 C.ar    1  UNL1        0.1179
     10 N         141.5885  140.9813  167.3924 N.ar    1  UNL1       -0.2248
     11 C         140.4666  140.5315  168.2808 C.ar    1  UNL1        0.1633
     12 C         139.3431  139.7147  167.7147 C.ar    1  UNL1        0.1797
     13 N         138.1107  139.1326  168.3411 N.ar    1  UNL1       -0.2222
     14 C         137.3474  138.4058  167.2738 C.ar    1  UNL1        0.1196
     15 C         138.1081  138.5387  165.9877 C.ar    1  UNL1        0.1023
     16 N         139.3415  139.3476  166.2602 N.ar    1  UNL1       -0.2851
     17 N         140.4683  140.8986  169.7352 N.pl3   1  UNL1       -0.3173
     18 H         140.6546  140.2122  170.4159 H       1  UNL1        0.1482
     19 C         140.1862  142.3115  170.1525 C.3     1  UNL1        0.0706
     20 C         139.5144  143.2836  171.0764 C.3     1  UNL1        0.0212
     21 C         140.3694  143.7865  169.9512 C.3     1  UNL1        0.0212
     22 N         140.4568  138.3293  159.5544 N.am    1  UNL1       -0.2680
     23 C         141.6918  138.5338  158.7278 C.2     1  UNL1        0.3092
     24 O         142.9283  139.1052  159.3557 O.2     1  UNL1       -0.2521
     25 N         141.6901  138.1667  157.2735 N.am    1  UNL1       -0.2533
     26 H         139.6452  137.9542  159.1423 H       1  UNL1        0.1564
     27 H         140.8785  137.7916  156.8614 H       1  UNL1        0.1578
     28 C         142.9251  138.3712  156.4469 C.ar    1  UNL1        0.1380
     29 C         143.5655  139.6900  156.1301 C.ar    1  UNL1        0.0509
     30 C         144.7726  139.4266  155.2795 C.ar    1  UNL1        0.0810
     31 N         144.8782  137.9450  155.0706 N.ar    1  UNL1       -0.1683
     32 N         143.7363  137.2927  155.7921 N.ar    1  UNL1       -0.2162
     33 C         143.4551  135.8204  155.8489 C.ar    1  UNL1        0.0842
     34 C         143.6442  135.0697  157.1337 C.ar    1  UNL1        0.0192
     35 C         143.3630  133.5974  157.1905 C.ar    1  UNL1        0.0015
     36 C         142.8927  132.8757  155.9624 C.ar    1  UNL1        0.0001
     37 C         142.7036  133.6264  154.6776 C.ar    1  UNL1        0.0015
     38 C         142.9848  135.0987  154.6208 C.ar    1  UNL1        0.0192
     39 C         145.7097  140.4630  154.7335 C.3     1  UNL1        0.0372
     40 C         145.9254  140.9974  156.1184 C.3     1  UNL1        0.0060
     41 C         145.4939  139.9284  153.3487 C.3     1  UNL1        0.0060
     42 C         146.6467  141.4992  154.1875 C.3     1  UNL1        0.0060
@<TRIPOS>BOND
     1     1     2    1
     2     2     3   ar
     3     3     4   ar
     4     4    22    1
     5    22    23   am
     6    23    24    2
     7    23    25   am
     8    25    28    1
     9    28    29   ar
    10    29    30   ar
    11    30    39    1
    12    39    40    1
    13    39    41    1
    14    39    42    1
    15    30    31   ar
    16    31    32   ar
    17    32    33    1
    18    33    34   ar
    19    34    35   ar
    20    35    36   ar
    21    36    37   ar
    22    37    38   ar
    23     4     5   ar
    24     5     6   ar
    25     6     7   ar
    26     7     8    1
    27     8     9   ar
    28     9    10   ar
    29    10    11   ar
    30    11    17    1
    31    17    19    1
    32    19    20    1
    33    20    21    1
    34    11    12   ar
    35    12    13   ar
    36    13    14   ar
    37    14    15   ar
    38    15    16   ar
    39     7     2   ar
    40    16     8   ar
    41    32    28   ar
    42    38    33   ar
    43    21    19    1
    44    16    12   ar
    45    22    26    1
    46    25    27    1
    47    17    18    1
@<TRIPOS>MOLECULE
*****
 42 47 0 0 0
SMALL
GASTEIGER

@<TRIPOS>ATOM
      1 C         145.1603  141.1294  162.8645 C.3     1  UNL1        0.0311
      2 C         143.9036  140.6762  162.1824 C.ar    1  UNL1       -0.0192
      3 C         143.9326  140.2968  160.7316 C.ar    1  UNL1        0.0105
      4 C         142.6758  139.8436  160.0495 C.ar    1  UNL1        0.0513
      5 C         141.3901  139.7698  160.8185 C.ar    1  UNL1        0.0147
      6 C         141.3610  140.1492  162.2695 C.ar    1  UNL1        0.0025
      7 C         142.6178  140.6023  162.9514 C.ar    1  UNL1        0.0138
      8 C         142.5888  140.9817  164.4024 C.ar    1  UNL1        0.0843
      9 C         142.2295  142.3814  164.8046 C.ar    1  UNL1        0.1179
     10 N         142.2005  142.7608  166.2554 N.ar    1  UNL1       -0.2248
     11 C         142.5309  141.7405  167.3043 C.ar    1  UNL1        0.1633
     12 C         142.8901  140.3409  166.9021 C.ar    1  UNL1        0.1797
     13 N         143.2599  139.1293  167.7055 N.ar    1  UNL1       -0.2222
     14 C         143.5173  138.0012  166.7511 C.ar    1  UNL1        0.1196
     15 C         143.3067  138.5154  165.3578 C.ar    1  UNL1        0.1023
     16 N         142.9191  139.9615  165.4511 N.ar    1  UNL1       -0.2851
     17 N         142.5019  142.1200  168.7552 N.pl3   1  UNL1       -0.3173
     18 H         143.3057  142.0015  169.3112 H       1  UNL1        0.1482
     19 C         141.2482  142.6801  169.3590 C.3     1  UNL1        0.0706
     20 C         140.3765  143.8564  169.6853 C.3     1  UNL1        0.0212
     21 C         139.9484  142.4737  170.0787 C.3     1  UNL1        0.0212
     22 N         142.7048  139.4642  158.5987 N.am    1  UNL1       -0.2680
     23 C         142.7054  138.0177  158.2015 C.2     1  UNL1        0.3092
     24 O         142.6770  136.9506  159.2553 O.2     1  UNL1       -0.2521
     25 N         142.7344  137.6383  156.7506 N.am    1  UNL1       -0.2533
     26 H         142.7235  140.1646  157.9070 H       1  UNL1        0.1564
     27 H         142.7531  138.3387  156.0590 H       1  UNL1        0.1578
     28 C         142.7350  136.1918  156.3534 C.ar    1  UNL1        0.1380
     29 C         143.7480  135.1650  156.7649 C.ar    1  UNL1        0.0509
     30 C         143.3618  133.8568  156.1409 C.ar    1  UNL1        0.0810
     31 N         142.1101  134.0751  155.3437 N.ar    1  UNL1       -0.1683
     32 N         141.7227  135.5182  155.4751 N.ar    1  UNL1       -0.2162
     33 C         140.5320  136.1729  154.8396 C.ar    1  UNL1        0.0842
     34 C         139.5076  136.8580  155.6946 C.ar    1  UNL1        0.0192
     35 C         138.3169  137.5126  155.0592 C.ar    1  UNL1        0.0015
     36 C         138.1507  137.4821  153.5687 C.ar    1  UNL1        0.0001
     37 C         139.1752  136.7969  152.7137 C.ar    1  UNL1        0.0015
     38 C         140.3658  136.1423  153.3491 C.ar    1  UNL1        0.0192
     39 C         144.0981  132.5582  156.2881 C.3     1  UNL1        0.0372
     40 C         143.5866  132.1163  154.9491 C.3     1  UNL1        0.0060
     41 C         144.6096  133.0002  157.6273 C.3     1  UNL1        0.0060
     42 C         144.8344  131.2597  156.4355 C.3     1  UNL1        0.0060
@<TRIPOS>BOND
     1     1     2    1
     2     2     3   ar
     3     3     4   ar
     4     4    22    1
     5    22    23   am
     6    23    24    2
     7    23    25   am
     8    25    28    1
     9    28    29   ar
    10    29    30   ar
    11    30    39    1
    12    39    40    1
    13    39    41    1
    14    39    42    1
    15    30    31   ar
    16    31    32   ar
    17    32    33    1
    18    33    34   ar
    19    34    35   ar
    20    35    36   ar
    21    36    37   ar
    22    37    38   ar
    23     4     5   ar
    24     5     6   ar
    25     6     7   ar
    26     7     8    1
    27     8     9   ar
    28     9    10   ar
    29    10    11   ar
    30    11    17    1
    31    17    19    1
    32    19    20    1
    33    20    21    1
    34    11    12   ar
    35    12    13   ar
    36    13    14   ar
    37    14    15   ar
    38    15    16   ar
    39     7     2   ar
    40    16     8   ar
    41    32    28   ar
    42    38    33   ar
    43    21    19    1
    44    16    12   ar
    45    22    26    1
    46    25    27    1
    47    17    18    1
@<TRIPOS>MOLECULE
*****
 42 47 0 0 0
SMALL
GASTEIGER

@<TRIPOS>ATOM
      1 C         145.0480  140.6600  163.0887 C.3     1  UNL1        0.0311
      2 C         143.9707  139.8685  162.4083 C.ar    1  UNL1       -0.0192
      3 C         144.0291  139.6410  160.9269 C.ar    1  UNL1        0.0105
      4 C         142.9517  138.8495  160.2466 C.ar    1  UNL1        0.0513
      5 C         141.8159  138.2855  161.0478 C.ar    1  UNL1        0.0147
      6 C         141.7575  138.5131  162.5293 C.ar    1  UNL1        0.0025
      7 C         142.8348  139.3045  163.2096 C.ar    1  UNL1        0.0138
      8 C         142.7764  139.5321  164.6911 C.ar    1  UNL1        0.0843
      9 C         143.4168  138.5499  165.6266 C.ar    1  UNL1        0.1179
     10 N         143.3585  138.7774  167.1080 N.ar    1  UNL1       -0.2248
     11 C         142.6597  139.9873  167.6541 C.ar    1  UNL1        0.1633
     12 C         142.0193  140.9695  166.7186 C.ar    1  UNL1        0.1797
     13 N         141.2659  142.2434  166.9626 N.ar    1  UNL1       -0.2222
     14 C         140.8587  142.8031  165.6319 C.ar    1  UNL1        0.1196
     15 C         141.3604  141.8752  164.5654 C.ar    1  UNL1        0.1023
     16 N         142.0777  140.7419  165.2371 N.ar    1  UNL1       -0.2851
     17 N         142.6013  140.2147  169.1356 N.pl3   1  UNL1       -0.3173
     18 H         142.2620  139.5066  169.7294 H       1  UNL1        0.1482
     19 C         143.0599  141.5212  169.7124 C.3     1  UNL1        0.0706
     20 C         142.7554  142.8030  170.4296 C.3     1  UNL1        0.0212
     21 C         144.1590  142.5023  169.9943 C.3     1  UNL1        0.0212
     22 N         143.0101  138.6219  158.7652 N.am    1  UNL1       -0.2680
     23 C         142.9493  137.2267  158.2176 C.2     1  UNL1        0.3092
     24 O         142.8301  136.0591  159.1517 O.2     1  UNL1       -0.2521
     25 N         143.0078  136.9991  156.7362 N.am    1  UNL1       -0.2533
     26 H         143.0884  139.3883  158.1522 H       1  UNL1        0.1564
     27 H         143.0860  137.7655  156.1232 H       1  UNL1        0.1578
     28 C         142.9470  135.6039  156.1887 C.ar    1  UNL1        0.1380
     29 C         143.9169  134.4983  156.4830 C.ar    1  UNL1        0.0509
     30 C         143.4750  133.2805  155.7270 C.ar    1  UNL1        0.0810
     31 N         142.2319  133.6335  154.9654 N.ar    1  UNL1       -0.1683
     32 N         141.9055  135.0694  155.2508 N.ar    1  UNL1       -0.2162
     33 C         140.7420  135.8363  154.6956 C.ar    1  UNL1        0.0842
     34 C         140.4937  135.8557  153.2165 C.ar    1  UNL1        0.0192
     35 C         139.3301  136.6226  152.6613 C.ar    1  UNL1        0.0015
     36 C         138.4149  137.3700  153.5854 C.ar    1  UNL1        0.0001
     37 C         138.6633  137.3505  155.0646 C.ar    1  UNL1        0.0015
     38 C         139.8268  136.5837  155.6197 C.ar    1  UNL1        0.0192
     39 C         144.1566  131.9442  155.7317 C.3     1  UNL1        0.0372
     40 C         143.4924  131.6009  154.4313 C.3     1  UNL1        0.0060
     41 C         144.8208  132.2877  157.0321 C.3     1  UNL1        0.0060
     42 C         144.8382  130.6081  155.7364 C.3     1  UNL1        0.0060
@<TRIPOS>BOND
     1     1     2    1
     2     2     3   ar
     3     3     4   ar
     4     4    22    1
     5    22    23   am
     6    23    24    2
     7    23    25   am
     8    25    28    1
     9    28    29   ar
    10    29    30   ar
    11    30    39    1
    12    39    40    1
    13    39    41    1
    14    39    42    1
    15    30    31   ar
    16    31    32   ar
    17    32    33    1
    18    33    34   ar
    19    34    35   ar
    20    35    36   ar
    21    36    37   ar
    22    37    38   ar
    23     4     5   ar
    24     5     6   ar
    25     6     7   ar
    26     7     8    1
    27     8     9   ar
    28     9    10   ar
    29    10    11   ar
    30    11    17    1
    31    17    19    1
    32    19    20    1
    33    20    21    1
    34    11    12   ar
    35    12    13   ar
    36    13    14   ar
    37    14    15   ar
    38    15    16   ar
    39     7     2   ar
    40    16     8   ar
    41    32    28   ar
    42    38    33   ar
    43    21    19    1
    44    16    12   ar
    45    22    26    1
    46    25    27    1
    47    17    18    1
@<TRIPOS>MOLECULE
*****
 42 47 0 0 0
SMALL
GASTEIGER

@<TRIPOS>ATOM
      1 C         141.6198  142.0157  157.3753 C.3     1  UNL1        0.0311
      2 C         140.7385  142.0209  158.5891 C.ar    1  UNL1       -0.0192
      3 C         140.9272  140.9852  159.6574 C.ar    1  UNL1        0.0105
      4 C         140.0458  140.9905  160.8713 C.ar    1  UNL1        0.0513
      5 C         138.9758  142.0316  161.0166 C.ar    1  UNL1        0.0147
      6 C         138.7870  143.0674  159.9481 C.ar    1  UNL1        0.0025
      7 C         139.6684  143.0621  158.7344 C.ar    1  UNL1        0.0138
      8 C         139.4797  144.0978  157.6659 C.ar    1  UNL1        0.0843
      9 C         140.2963  145.3559  157.6883 C.ar    1  UNL1        0.1179
     10 N         140.1076  146.3916  156.6199 N.ar    1  UNL1       -0.2248
     11 C         139.1023  146.1694  155.5290 C.ar    1  UNL1        0.1633
     12 C         138.2857  144.9113  155.5066 C.ar    1  UNL1        0.1797
     13 N         137.2270  144.4186  154.5651 N.ar    1  UNL1       -0.2222
     14 C         136.7614  143.0784  155.0517 C.ar    1  UNL1        0.1196
     15 C         137.5323  142.7427  156.2939 C.ar    1  UNL1        0.1023
     16 N         138.4744  143.8756  156.5751 N.ar    1  UNL1       -0.2851
     17 N         138.9137  147.2052  154.4606 N.pl3   1  UNL1       -0.3173
     18 H         138.6668  146.9315  153.5477 H       1  UNL1        0.1482
     19 C         139.1012  148.6581  154.7830 C.3     1  UNL1        0.0706
     20 C         138.6822  149.8864  155.5351 C.3     1  UNL1        0.0212
     21 C         139.8450  149.9462  154.5894 C.3     1  UNL1        0.0212
     22 N         140.2345  139.9548  161.9396 N.am    1  UNL1       -0.2680
     23 C         140.5614  140.3748  163.3421 C.2     1  UNL1        0.3092
     24 O         140.6995  141.8306  163.6761 O.2     1  UNL1       -0.2521
     25 N         140.7501  139.3390  164.4105 N.am    1  UNL1       -0.2533
     26 H         140.1439  138.9993  161.7204 H       1  UNL1        0.1564
     27 H         140.6594  138.3836  164.1913 H       1  UNL1        0.1578
     28 C         141.0769  139.7591  165.8130 C.ar    1  UNL1        0.1380
     29 C         140.2137  139.5457  167.0210 C.ar    1  UNL1        0.0509
     30 C         140.9276  140.1209  168.2082 C.ar    1  UNL1        0.0810
     31 N         142.2320  140.6897  167.7339 N.ar    1  UNL1       -0.1683
     32 N         142.3243  140.4661  166.2536 N.ar    1  UNL1       -0.2162
     33 C         143.4638  140.8774  165.3691 C.ar    1  UNL1        0.0842
     34 C         143.8676  142.3197  165.2880 C.ar    1  UNL1        0.0192
     35 C         145.0071  142.7310  164.4036 C.ar    1  UNL1        0.0015
     36 C         145.7430  141.6998  163.6002 C.ar    1  UNL1        0.0001
     37 C         145.3393  140.2575  163.6813 C.ar    1  UNL1        0.0015
     38 C         144.1997  139.8462  164.5658 C.ar    1  UNL1        0.0192
     39 C         140.4252  140.1263  169.6216 C.3     1  UNL1        0.0372
     40 C         141.8379  140.0785  170.1238 C.3     1  UNL1        0.0060
     41 C         139.0126  140.1740  169.1193 C.3     1  UNL1        0.0060
     42 C         139.9229  140.1317  171.0350 C.3     1  UNL1        0.0060
@<TRIPOS>BOND
     1     1     2    1
     2     2     3   ar
     3     3     4   ar
     4     4    22    1
     5    22    23   am
     6    23    24    2
     7    23    25   am
     8    25    28    1
     9    28    29   ar
    10    29    30   ar
    11    30    39    1
    12    39    40    1
    13    39    41    1
    14    39    42    1
    15    30    31   ar
    16    31    32   ar
    17    32    33    1
    18    33    34   ar
    19    34    35   ar
    20    35    36   ar
    21    36    37   ar
    22    37    38   ar
    23     4     5   ar
    24     5     6   ar
    25     6     7   ar
    26     7     8    1
    27     8     9   ar
    28     9    10   ar
    29    10    11   ar
    30    11    17    1
    31    17    19    1
    32    19    20    1
    33    20    21    1
    34    11    12   ar
    35    12    13   ar
    36    13    14   ar
    37    14    15   ar
    38    15    16   ar
    39     7     2   ar
    40    16     8   ar
    41    32    28   ar
    42    38    33   ar
    43    21    19    1
    44    16    12   ar
    45    22    26    1
    46    25    27    1
    47    17    18    1
@<TRIPOS>MOLECULE
*****
 42 47 0 0 0
SMALL
GASTEIGER

@<TRIPOS>ATOM
      1 C         141.5841  141.5973  157.7591 C.3     1  UNL1        0.0311
      2 C         142.4312  141.1490  158.9130 C.ar    1  UNL1       -0.0192
      3 C         142.5455  142.0074  160.1376 C.ar    1  UNL1        0.0105
      4 C         143.3927  141.5591  161.2915 C.ar    1  UNL1        0.0513
      5 C         144.1255  140.2522  161.2206 C.ar    1  UNL1        0.0147
      6 C         144.0113  139.3936  159.9959 C.ar    1  UNL1        0.0025
      7 C         143.1641  139.8420  158.8421 C.ar    1  UNL1        0.0138
      8 C         143.0498  138.9836  157.6174 C.ar    1  UNL1        0.0843
      9 C         142.0964  137.8257  157.5994 C.ar    1  UNL1        0.1179
     10 N         141.9821  136.9672  156.3748 N.ar    1  UNL1       -0.2248
     11 C         142.8211  137.2666  155.1679 C.ar    1  UNL1        0.1633
     12 C         143.7745  138.4245  155.1858 C.ar    1  UNL1        0.1797
     13 N         144.7234  138.9593  154.1546 N.ar    1  UNL1       -0.2222
     14 C         145.4242  140.1484  154.7420 C.ar    1  UNL1        0.1196
     15 C         144.9084  140.3484  156.1362 C.ar    1  UNL1        0.1023
     16 N         143.8889  139.2830  156.4106 N.ar    1  UNL1       -0.2851
     17 N         142.7068  136.4080  153.9432 N.pl3   1  UNL1       -0.3173
     18 H         142.7526  136.8174  153.0490 H       1  UNL1        0.1482
     19 C         142.5226  134.9258  154.0809 C.3     1  UNL1        0.0706
     20 C         142.1107  133.6079  153.4948 C.3     1  UNL1        0.0212
     21 C         142.6155  133.6763  154.9056 C.3     1  UNL1        0.0212
     22 N         143.5070  142.4175  162.5162 N.am    1  UNL1       -0.2680
     23 C         142.7431  142.0601  163.7567 C.2     1  UNL1        0.3092
     24 O         141.8650  140.8441  163.7724 O.2     1  UNL1       -0.2521
     25 N         142.8574  142.9185  164.9813 N.am    1  UNL1       -0.2533
     26 H         144.0834  143.2156  162.5058 H       1  UNL1        0.1564
     27 H         143.4338  143.7166  164.9710 H       1  UNL1        0.1578
     28 C         142.0935  142.5611  166.2219 C.ar    1  UNL1        0.1380
     29 C         142.6867  142.1034  167.5213 C.ar    1  UNL1        0.0509
     30 C         141.5622  141.8581  168.4832 C.ar    1  UNL1        0.0810
     31 N         140.2741  142.1641  167.7782 N.ar    1  UNL1       -0.1683
     32 N         140.6024  142.5986  166.3806 N.ar    1  UNL1       -0.2162
     33 C         139.6134  143.0001  165.3268 C.ar    1  UNL1        0.0842
     34 C         138.5870  142.0167  164.8479 C.ar    1  UNL1        0.0192
     35 C         137.5979  142.4182  163.7941 C.ar    1  UNL1        0.0015
     36 C         137.6352  143.8032  163.2192 C.ar    1  UNL1        0.0001
     37 C         138.6616  144.7867  163.6981 C.ar    1  UNL1        0.0015
     38 C         139.6507  144.3852  164.7519 C.ar    1  UNL1        0.0192
     39 C         141.7014  141.3890  169.9012 C.3     1  UNL1        0.0372
     40 C         140.2104  141.4267  170.0601 C.3     1  UNL1        0.0060
     41 C         143.1926  141.3513  169.7423 C.3     1  UNL1        0.0060
     42 C         141.8407  140.9199  171.3191 C.3     1  UNL1        0.0060
@<TRIPOS>BOND
     1     1     2    1
     2     2     3   ar
     3     3     4   ar
     4     4    22    1
     5    22    23   am
     6    23    24    2
     7    23    25   am
     8    25    28    1
     9    28    29   ar
    10    29    30   ar
    11    30    39    1
    12    39    40    1
    13    39    41    1
    14    39    42    1
    15    30    31   ar
    16    31    32   ar
    17    32    33    1
    18    33    34   ar
    19    34    35   ar
    20    35    36   ar
    21    36    37   ar
    22    37    38   ar
    23     4     5   ar
    24     5     6   ar
    25     6     7   ar
    26     7     8    1
    27     8     9   ar
    28     9    10   ar
    29    10    11   ar
    30    11    17    1
    31    17    19    1
    32    19    20    1
    33    20    21    1
    34    11    12   ar
    35    12    13   ar
    36    13    14   ar
    37    14    15   ar
    38    15    16   ar
    39     7     2   ar
    40    16     8   ar
    41    32    28   ar
    42    38    33   ar
    43    21    19    1
    44    16    12   ar
    45    22    26    1
    46    25    27    1
    47    17    18    1
@<TRIPOS>MOLECULE
*****
 42 47 0 0 0
SMALL
GASTEIGER

@<TRIPOS>ATOM
      1 C         141.0133  137.1416  163.4244 C.3     1  UNL1        0.0311
      2 C         141.9768  137.9326  162.5901 C.ar    1  UNL1       -0.0192
      3 C         142.0742  137.6803  161.1148 C.ar    1  UNL1        0.0105
      4 C         143.0378  138.4713  160.2805 C.ar    1  UNL1        0.0513
      5 C         143.9039  139.5147  160.9217 C.ar    1  UNL1        0.0147
      6 C         143.8066  139.7671  162.3972 C.ar    1  UNL1        0.0025
      7 C         142.8430  138.9760  163.2314 C.ar    1  UNL1        0.0138
      8 C         142.7456  139.2283  164.7068 C.ar    1  UNL1        0.0843
      9 C         143.6223  138.4680  165.6572 C.ar    1  UNL1        0.1179
     10 N         143.5249  138.7202  167.1325 N.ar    1  UNL1       -0.2248
     11 C         142.5508  139.7330  167.6576 C.ar    1  UNL1        0.1633
     12 C         141.6742  140.4934  166.7072 C.ar    1  UNL1        0.1797
     13 N         140.6279  141.5449  166.9296 N.ar    1  UNL1       -0.2222
     14 C         140.0787  141.9425  165.5916 C.ar    1  UNL1        0.1196
     15 C         140.7855  141.1367  164.5423 C.ar    1  UNL1        0.1023
     16 N         141.7716  140.2411  165.2318 N.ar    1  UNL1       -0.2851
     17 N         142.4535  139.9852  169.1331 N.pl3   1  UNL1       -0.3173
     18 H         142.1257  139.2768  169.7330 H       1  UNL1        0.1482
     19 C         142.8556  141.3168  169.6944 C.3     1  UNL1        0.0706
     20 C         142.5338  142.5329  170.5116 C.3     1  UNL1        0.0212
     21 C         143.8739  142.4072  169.8495 C.3     1  UNL1        0.0212
     22 N         143.1351  138.2190  158.8052 N.am    1  UNL1       -0.2680
     23 C         141.8892  138.1446  157.9731 C.2     1  UNL1        0.3092
     24 O         140.5460  138.3226  158.6165 O.2     1  UNL1       -0.2521
     25 N         141.9866  137.8923  156.4978 N.am    1  UNL1       -0.2533
     26 H         144.0168  138.1022  158.3829 H       1  UNL1        0.1564
     27 H         142.8682  137.7755  156.0755 H       1  UNL1        0.1578
     28 C         140.7407  137.8179  155.6657 C.ar    1  UNL1        0.1380
     29 C         139.6838  138.8774  155.5642 C.ar    1  UNL1        0.0509
     30 C         138.6229  138.3853  154.6248 C.ar    1  UNL1        0.0810
     31 N         139.0241  137.0217  154.1458 N.ar    1  UNL1       -0.1683
     32 N         140.3330  136.6710  154.7891 N.ar    1  UNL1       -0.2162
     33 C         141.0996  135.3971  154.5907 C.ar    1  UNL1        0.0842
     34 C         141.2582  134.8239  153.2136 C.ar    1  UNL1        0.0192
     35 C         142.0248  133.5500  153.0151 C.ar    1  UNL1        0.0015
     36 C         142.6328  132.8491  154.1938 C.ar    1  UNL1        0.0001
     37 C         142.4742  133.4223  155.5709 C.ar    1  UNL1        0.0015
     38 C         141.7076  134.6962  155.7694 C.ar    1  UNL1        0.0192
     39 C         137.3790  139.1268  154.2332 C.3     1  UNL1        0.0372
     40 C         136.6478  137.8248  154.0910 C.3     1  UNL1        0.0060
     41 C         138.1104  140.4287  154.3755 C.3     1  UNL1        0.0060
     42 C         136.1353  139.8682  153.8417 C.3     1  UNL1        0.0060
@<TRIPOS>BOND
     1     1     2    1
     2     2     3   ar
     3     3     4   ar
     4     4    22    1
     5    22    23   am
     6    23    24    2
     7    23    25   am
     8    25    28    1
     9    28    29   ar
    10    29    30   ar
    11    30    39    1
    12    39    40    1
    13    39    41    1
    14    39    42    1
    15    30    31   ar
    16    31    32   ar
    17    32    33    1
    18    33    34   ar
    19    34    35   ar
    20    35    36   ar
    21    36    37   ar
    22    37    38   ar
    23     4     5   ar
    24     5     6   ar
    25     6     7   ar
    26     7     8    1
    27     8     9   ar
    28     9    10   ar
    29    10    11   ar
    30    11    17    1
    31    17    19    1
    32    19    20    1
    33    20    21    1
    34    11    12   ar
    35    12    13   ar
    36    13    14   ar
    37    14    15   ar
    38    15    16   ar
    39     7     2   ar
    40    16     8   ar
    41    32    28   ar
    42    38    33   ar
    43    21    19    1
    44    16    12   ar
    45    22    26    1
    46    25    27    1
    47    17    18    1
@<TRIPOS>MOLECULE
*****
 42 47 0 0 0
SMALL
GASTEIGER

@<TRIPOS>ATOM
      1 C         140.4576  140.7717  157.8482 C.3     1  UNL1        0.0311
      2 C         140.8378  139.8908  159.0012 C.ar    1  UNL1       -0.0192
      3 C         140.0431  139.9349  160.2726 C.ar    1  UNL1        0.0105
      4 C         140.4233  139.0540  161.4257 C.ar    1  UNL1        0.0513
      5 C         141.5982  138.1290  161.3072 C.ar    1  UNL1        0.0147
      6 C         142.3929  138.0849  160.0358 C.ar    1  UNL1        0.0025
      7 C         142.0127  138.9658  158.8828 C.ar    1  UNL1        0.0138
      8 C         142.8074  138.9218  157.6114 C.ar    1  UNL1        0.0843
      9 C         143.9538  139.8679  157.4103 C.ar    1  UNL1        0.1179
     10 N         144.7484  139.8239  156.1389 N.ar    1  UNL1       -0.2248
     11 C         144.3967  138.8336  155.0685 C.ar    1  UNL1        0.1633
     12 C         143.2503  137.8874  155.2696 C.ar    1  UNL1        0.1797
     13 N         142.6733  136.8105  154.3993 N.ar    1  UNL1       -0.2222
     14 C         141.5220  136.1890  155.1329 C.ar    1  UNL1        0.1196
     15 C         141.3875  136.8818  156.4566 C.ar    1  UNL1        0.1023
     16 N         142.4557  137.9315  156.5410 N.ar    1  UNL1       -0.2851
     17 N         145.1915  138.7896  153.7970 N.pl3   1  UNL1       -0.3173
     18 H         145.4674  137.9236  153.4187 H       1  UNL1        0.1482
     19 C         145.5658  140.0651  153.1020 C.3     1  UNL1        0.0706
     20 C         146.6008  141.0824  152.7228 C.3     1  UNL1        0.0212
     21 C         145.1791  141.2570  152.2775 C.3     1  UNL1        0.0212
     22 N         139.6286  139.0981  162.6970 N.am    1  UNL1       -0.2680
     23 C         140.0738  139.9749  163.8298 C.2     1  UNL1        0.3092
     24 O         141.3136  140.8077  163.6910 O.2     1  UNL1       -0.2521
     25 N         139.2791  140.0190  165.1011 N.am    1  UNL1       -0.2533
     26 H         138.8149  138.5515  162.7881 H       1  UNL1        0.1564
     27 H         138.4654  139.4724  165.1922 H       1  UNL1        0.1578
     28 C         139.7243  140.8959  166.2339 C.ar    1  UNL1        0.1380
     29 C         140.1581  140.4295  167.5918 C.ar    1  UNL1        0.0509
     30 C         140.5157  141.6384  168.4047 C.ar    1  UNL1        0.0810
     31 N         140.3028  142.8519  167.5491 N.ar    1  UNL1       -0.1683
     32 N         139.8137  142.3930  166.2074 N.ar    1  UNL1       -0.2162
     33 C         139.4737  143.2761  165.0437 C.ar    1  UNL1        0.0842
     34 C         140.5301  144.1445  164.4272 C.ar    1  UNL1        0.0192
     35 C         140.1901  145.0276  163.2635 C.ar    1  UNL1        0.0015
     36 C         138.7936  145.0425  162.7160 C.ar    1  UNL1        0.0001
     37 C         137.7371  144.1741  163.3324 C.ar    1  UNL1        0.0015
     38 C         138.0771  143.2910  164.4962 C.ar    1  UNL1        0.0192
     39 C         141.0010  141.6345  169.8241 C.3     1  UNL1        0.0372
     40 C         141.2120  140.1514  169.7479 C.3     1  UNL1        0.0060
     41 C         140.7899  143.1177  169.9003 C.3     1  UNL1        0.0060
     42 C         141.4862  141.6306  171.2434 C.3     1  UNL1        0.0060
@<TRIPOS>BOND
     1     1     2    1
     2     2     3   ar
     3     3     4   ar
     4     4    22    1
     5    22    23   am
     6    23    24    2
     7    23    25   am
     8    25    28    1
     9    28    29   ar
    10    29    30   ar
    11    30    39    1
    12    39    40    1
    13    39    41    1
    14    39    42    1
    15    30    31   ar
    16    31    32   ar
    17    32    33    1
    18    33    34   ar
    19    34    35   ar
    20    35    36   ar
    21    36    37   ar
    22    37    38   ar
    23     4     5   ar
    24     5     6   ar
    25     6     7   ar
    26     7     8    1
    27     8     9   ar
    28     9    10   ar
    29    10    11   ar
    30    11    17    1
    31    17    19    1
    32    19    20    1
    33    20    21    1
    34    11    12   ar
    35    12    13   ar
    36    13    14   ar
    37    14    15   ar
    38    15    16   ar
    39     7     2   ar
    40    16     8   ar
    41    32    28   ar
    42    38    33   ar
    43    21    19    1
    44    16    12   ar
    45    22    26    1
    46    25    27    1
    47    17    18    1
