@<TRIPOS>MOLECULE
*****
 25 28 0 0 0
SMALL
GASTEIGER

@<TRIPOS>ATOM
      1 C         143.4193  142.5794  162.6480 C.2     1  UNL1        0.3579
      2 N         144.9059  142.6630  162.4664 N.2     1  UNL1       -0.0354
      3 C         145.8100  141.7684  163.2615 C.2     1  UNL1        0.2392
      4 C         145.2276  140.7903  164.2382 C.2     1  UNL1        0.0975
      5 C         143.7410  140.7066  164.4198 C.2     1  UNL1        0.2357
      6 N         142.8844  139.8472  165.3015 N.2     1  UNL1       -0.0340
      7 C         141.4507  140.2106  165.0514 C.2     1  UNL1        0.3712
      8 N         141.4213  141.2947  164.0151 N.2     1  UNL1       -0.0428
      9 C         142.8369  141.6012  163.6247 C.3     1  UNL1        0.3825
     10 C         140.2209  145.6912  158.2076 C.3     1  UNL1        0.0897
     11 N         140.8026  145.1401  159.4756 N.3     1  UNL1       -0.2679
     12 C         140.2658  145.7274  160.7471 C.3     1  UNL1        0.0765
     13 C         140.6380  145.3942  162.1615 C.3     1  UNL1        0.0681
     14 C         141.6390  144.3914  162.6536 C.3     1  UNL1        0.2036
     15 N         142.5150  143.4740  161.8530 N.pl3   1  UNL1       -0.1887
     16 C         142.6064  143.3329  160.3624 C.3     1  UNL1        0.2195
     17 C         141.8443  144.0744  159.3044 C.3     1  UNL1        0.1236
     18 C         140.2561  139.5975  165.7202 C.ar    1  UNL1        0.0904
     19 C         139.4758  138.5227  165.0233 C.ar    1  UNL1        0.0101
     20 C         138.2813  137.9097  165.6921 C.ar    1  UNL1        0.0322
     21 C         137.8671  138.3715  167.0578 C.ar    1  UNL1        0.1674
     22 F         136.6725  137.7585  167.7266 F       1  UNL1       -0.2018
     23 C         138.6474  139.4464  167.7547 C.ar    1  UNL1        0.1676
     24 F         138.2333  139.9082  169.1204 F       1  UNL1       -0.2018
     25 C         139.8419  140.0594  167.0859 C.ar    1  UNL1        0.0396
@<TRIPOS>BOND
     1    10    11    1
     2    11    12    1
     3    12    13    1
     4    13    14    1
     5    14    15    1
     6    15     1    1
     7     1     2    2
     8     2     3    1
     9     3     4    2
    10     4     5    1
    11     5     6    2
    12     6     7    1
    13     7    18    1
    14    18    19   ar
    15    19    20   ar
    16    20    21   ar
    17    21    22    1
    18    21    23   ar
    19    23    24    1
    20    23    25   ar
    21     7     8    2
    22     8     9    1
    23    15    16    1
    24    16    17    1
    25    17    11    1
    26     9     1    1
    27     9     5    1
    28    25    18   ar
@<TRIPOS>MOLECULE
*****
 25 28 0 0 0
SMALL
GASTEIGER

@<TRIPOS>ATOM
      1 C         139.0871  142.2066  162.9601 C.2     1  UNL1        0.3579
      2 N         138.1965  143.2728  162.3944 N.2     1  UNL1       -0.0354
      3 C         137.7760  144.4307  163.2502 C.2     1  UNL1        0.2392
      4 C         138.2460  144.5223  164.6717 C.2     1  UNL1        0.0975
      5 C         139.1365  143.4561  165.2374 C.2     1  UNL1        0.2357
      6 N         139.7537  143.2787  166.5930 N.2     1  UNL1       -0.0340
      7 C         140.5556  142.0112  166.5750 C.2     1  UNL1        0.3712
      8 N         140.4342  141.4052  165.2083 N.2     1  UNL1       -0.0428
      9 C         139.5571  142.2982  164.3816 C.3     1  UNL1        0.3825
     10 C         141.9310  138.1904  159.0341 C.3     1  UNL1        0.0897
     11 N         141.0302  138.8984  160.0023 N.3     1  UNL1       -0.2679
     12 C         139.8275  138.1258  160.4567 C.3     1  UNL1        0.0765
     13 C         138.7489  138.5493  161.4091 C.3     1  UNL1        0.0681
     14 C         138.6065  139.8501  162.1423 C.3     1  UNL1        0.2036
     15 N         139.5077  141.0487  162.1043 N.pl3   1  UNL1       -0.1887
     16 C         140.7737  141.2424  161.3236 C.3     1  UNL1        0.2195
     17 C         141.4513  140.2854  160.3881 C.3     1  UNL1        0.1236
     18 C         141.3412  141.4485  167.7224 C.ar    1  UNL1        0.0904
     19 C         140.9515  140.1306  168.3234 C.ar    1  UNL1        0.0101
     20 C         141.7370  139.5680  169.4707 C.ar    1  UNL1        0.0322
     21 C         142.9122  140.3232  170.0170 C.ar    1  UNL1        0.1674
     22 F         143.6978  139.7605  171.1644 F       1  UNL1       -0.2018
     23 C         143.3020  141.6411  169.4159 C.ar    1  UNL1        0.1676
     24 F         144.4772  142.3963  169.9622 F       1  UNL1       -0.2018
     25 C         142.5164  142.2037  168.2686 C.ar    1  UNL1        0.0396
@<TRIPOS>BOND
     1    10    11    1
     2    11    12    1
     3    12    13    1
     4    13    14    1
     5    14    15    1
     6    15     1    1
     7     1     2    2
     8     2     3    1
     9     3     4    2
    10     4     5    1
    11     5     6    2
    12     6     7    1
    13     7    18    1
    14    18    19   ar
    15    19    20   ar
    16    20    21   ar
    17    21    22    1
    18    21    23   ar
    19    23    24    1
    20    23    25   ar
    21     7     8    2
    22     8     9    1
    23    15    16    1
    24    16    17    1
    25    17    11    1
    26     9     1    1
    27     9     5    1
    28    25    18   ar
@<TRIPOS>MOLECULE
*****
 25 28 0 0 0
SMALL
GASTEIGER

@<TRIPOS>ATOM
      1 C         139.2205  140.3752  162.3310 C.2     1  UNL1        0.3579
      2 N         138.6918  139.3951  161.3261 N.2     1  UNL1       -0.0354
      3 C         138.3771  137.9892  161.7434 C.2     1  UNL1        0.2392
      4 C         138.5912  137.5632  163.1656 C.2     1  UNL1        0.0975
      5 C         139.1199  138.5432  164.1706 C.2     1  UNL1        0.2357
      6 N         139.4306  138.4130  165.6322 N.2     1  UNL1       -0.0340
      7 C         139.9373  139.7386  166.1183 C.2     1  UNL1        0.3712
      8 N         139.9398  140.6880  164.9571 N.2     1  UNL1       -0.0428
      9 C         139.4346  139.9492  163.7533 C.3     1  UNL1        0.3825
     10 C         139.5201  146.6073  161.4933 C.3     1  UNL1        0.0897
     11 N         139.6956  145.1178  161.4652 N.3     1  UNL1       -0.2679
     12 C         140.7536  144.6046  160.5340 C.3     1  UNL1        0.0765
     13 C         141.1673  143.1855  160.2796 C.3     1  UNL1        0.0681
     14 C         140.6250  141.9289  160.8937 C.3     1  UNL1        0.2036
     15 N         139.5352  141.7812  161.9138 N.pl3   1  UNL1       -0.1887
     16 C         138.7185  142.8536  162.5717 C.3     1  UNL1        0.2195
     17 C         138.7899  144.3386  162.3721 C.3     1  UNL1        0.1236
     18 C         140.3662  140.0585  167.5197 C.ar    1  UNL1        0.0904
     19 C         139.3692  140.0074  168.6393 C.ar    1  UNL1        0.0101
     20 C         139.7982  140.3272  170.0406 C.ar    1  UNL1        0.0322
     21 C         141.2240  140.6983  170.3223 C.ar    1  UNL1        0.1674
     22 F         141.6529  141.0181  171.7237 F       1  UNL1       -0.2018
     23 C         142.2209  140.7494  169.2027 C.ar    1  UNL1        0.1676
     24 F         143.6467  141.1204  169.4844 F       1  UNL1       -0.2018
     25 C         141.7920  140.4295  167.8014 C.ar    1  UNL1        0.0396
@<TRIPOS>BOND
     1    10    11    1
     2    11    12    1
     3    12    13    1
     4    13    14    1
     5    14    15    1
     6    15     1    1
     7     1     2    2
     8     2     3    1
     9     3     4    2
    10     4     5    1
    11     5     6    2
    12     6     7    1
    13     7    18    1
    14    18    19   ar
    15    19    20   ar
    16    20    21   ar
    17    21    22    1
    18    21    23   ar
    19    23    24    1
    20    23    25   ar
    21     7     8    2
    22     8     9    1
    23    15    16    1
    24    16    17    1
    25    17    11    1
    26     9     1    1
    27     9     5    1
    28    25    18   ar
@<TRIPOS>MOLECULE
*****
 25 28 0 0 0
SMALL
GASTEIGER

@<TRIPOS>ATOM
      1 C         140.0145  140.2264  162.7666 C.2     1  UNL1        0.3579
      2 N         139.2810  139.0563  162.1812 N.2     1  UNL1       -0.0354
      3 C         138.7910  137.9552  163.0742 C.2     1  UNL1        0.2392
      4 C         139.0346  138.0243  164.5527 C.2     1  UNL1        0.0975
      5 C         139.7680  139.1945  165.1381 C.2     1  UNL1        0.2357
      6 N         140.1531  139.5347  166.5473 N.2     1  UNL1       -0.0340
      7 C         140.8811  140.8460  166.5252 C.2     1  UNL1        0.3712
      8 N         140.9459  141.3163  165.1023 N.2     1  UNL1       -0.0428
      9 C         140.2580  140.2955  164.2451 C.3     1  UNL1        0.3825
     10 C         140.7356  145.2919  159.0989 C.3     1  UNL1        0.0897
     11 N         140.8906  144.0395  159.9099 N.3     1  UNL1       -0.2679
     12 C         142.2652  143.4396  159.9245 C.3     1  UNL1        0.0765
     13 C         142.7393  142.2047  160.6317 C.3     1  UNL1        0.0681
     14 C         141.9556  141.2647  161.4992 C.3     1  UNL1        0.2036
     15 N         140.5045  141.3275  161.8735 N.pl3   1  UNL1       -0.1887
     16 C         139.4785  142.3458  161.4729 C.3     1  UNL1        0.2195
     17 C         139.6504  143.5528  160.5990 C.3     1  UNL1        0.1236
     18 C         141.4452  141.5615  167.7169 C.ar    1  UNL1        0.0904
     19 C         142.7675  141.1417  168.2871 C.ar    1  UNL1        0.0101
     20 C         143.3315  141.8571  169.4787 C.ar    1  UNL1        0.0322
     21 C         142.5733  142.9925  170.1001 C.ar    1  UNL1        0.1674
     22 F         143.1373  143.7080  171.2917 F       1  UNL1       -0.2018
     23 C         141.2510  143.4123  169.5298 C.ar    1  UNL1        0.1676
     24 F         140.4927  144.5477  170.1511 F       1  UNL1       -0.2018
     25 C         140.6869  142.6969  168.3382 C.ar    1  UNL1        0.0396
@<TRIPOS>BOND
     1    10    11    1
     2    11    12    1
     3    12    13    1
     4    13    14    1
     5    14    15    1
     6    15     1    1
     7     1     2    2
     8     2     3    1
     9     3     4    2
    10     4     5    1
    11     5     6    2
    12     6     7    1
    13     7    18    1
    14    18    19   ar
    15    19    20   ar
    16    20    21   ar
    17    21    22    1
    18    21    23   ar
    19    23    24    1
    20    23    25   ar
    21     7     8    2
    22     8     9    1
    23    15    16    1
    24    16    17    1
    25    17    11    1
    26     9     1    1
    27     9     5    1
    28    25    18   ar
@<TRIPOS>MOLECULE
*****
 25 28 0 0 0
SMALL
GASTEIGER

@<TRIPOS>ATOM
      1 C         140.6354  139.5108  162.8777 C.2     1  UNL1        0.3579
      2 N         139.7531  138.4264  162.3342 N.2     1  UNL1       -0.0354
      3 C         138.8884  137.6269  163.2633 C.2     1  UNL1        0.2392
      4 C         138.9060  137.9120  164.7358 C.2     1  UNL1        0.0975
      5 C         139.7883  138.9964  165.2793 C.2     1  UNL1        0.2357
      6 N         140.0152  139.5014  166.6734 N.2     1  UNL1       -0.0340
      7 C         141.0202  140.6129  166.6060 C.2     1  UNL1        0.3712
      8 N         141.4144  140.7949  165.1702 N.2     1  UNL1       -0.0428
      9 C         140.6530  139.7958  164.3503 C.3     1  UNL1        0.3825
     10 C         143.0388  143.4421  158.5883 C.3     1  UNL1        0.0897
     11 N         142.7869  142.4151  159.6522 N.3     1  UNL1       -0.2679
     12 C         144.0021  141.7081  160.1749 C.3     1  UNL1        0.0765
     13 C         144.0838  140.6423  161.2272 C.3     1  UNL1        0.0681
     14 C         142.9702  140.0202  162.0166 C.3     1  UNL1        0.2036
     15 N         141.5001  140.3103  161.9487 N.pl3   1  UNL1       -0.1887
     16 C         140.7804  141.2941  161.0746 C.3     1  UNL1        0.2195
     17 C         141.3531  142.2309  160.0525 C.3     1  UNL1        0.1236
     18 C         141.5398  141.4036  167.7700 C.ar    1  UNL1        0.0904
     19 C         142.8687  141.0616  168.3757 C.ar    1  UNL1        0.0101
     20 C         143.3882  141.8523  169.5396 C.ar    1  UNL1        0.0322
     21 C         142.5788  142.9850  170.0980 C.ar    1  UNL1        0.1674
     22 F         143.0983  143.7757  171.2620 F       1  UNL1       -0.2018
     23 C         141.2498  143.3271  169.4923 C.ar    1  UNL1        0.1676
     24 F         140.4404  144.4598  170.0506 F       1  UNL1       -0.2018
     25 C         140.7303  142.5364  168.3283 C.ar    1  UNL1        0.0396
@<TRIPOS>BOND
     1    10    11    1
     2    11    12    1
     3    12    13    1
     4    13    14    1
     5    14    15    1
     6    15     1    1
     7     1     2    2
     8     2     3    1
     9     3     4    2
    10     4     5    1
    11     5     6    2
    12     6     7    1
    13     7    18    1
    14    18    19   ar
    15    19    20   ar
    16    20    21   ar
    17    21    22    1
    18    21    23   ar
    19    23    24    1
    20    23    25   ar
    21     7     8    2
    22     8     9    1
    23    15    16    1
    24    16    17    1
    25    17    11    1
    26     9     1    1
    27     9     5    1
    28    25    18   ar
@<TRIPOS>MOLECULE
*****
 25 28 0 0 0
SMALL
GASTEIGER

@<TRIPOS>ATOM
      1 C         140.1741  143.1203  162.5458 C.2     1  UNL1        0.3579
      2 N         139.0875  143.9853  161.9793 N.2     1  UNL1       -0.0354
      3 C         138.0967  144.6407  162.8951 C.2     1  UNL1        0.2392
      4 C         138.1924  144.4311  164.3773 C.2     1  UNL1        0.0975
      5 C         139.2790  143.5660  164.9437 C.2     1  UNL1        0.2357
      6 N         139.6220  143.1784  166.3516 N.2     1  UNL1       -0.0340
      7 C         140.8249  142.2834  166.3060 C.2     1  UNL1        0.3712
      8 N         141.2253  142.1179  164.8699 N.2     1  UNL1       -0.0428
      9 C         140.2699  142.9106  164.0280 C.3     1  UNL1        0.3825
     10 C         143.2809  139.4597  158.4741 C.3     1  UNL1        0.0897
     11 N         142.8284  140.5050  159.4501 N.3     1  UNL1       -0.2679
     12 C         143.8433  141.5532  159.7982 C.3     1  UNL1        0.0765
     13 C         143.7014  142.7191  160.7312 C.3     1  UNL1        0.0681
     14 C         142.5095  143.1249  161.5464 C.3     1  UNL1        0.2036
     15 N         141.1651  142.4648  161.6301 N.pl3   1  UNL1       -0.1887
     16 C         140.6806  141.2361  160.9192 C.3     1  UNL1        0.2195
     17 C         141.4209  140.3639  159.9490 C.3     1  UNL1        0.1236
     18 C         141.5076  141.6629  167.4888 C.ar    1  UNL1        0.0904
     19 C         141.0131  140.3590  168.0413 C.ar    1  UNL1        0.0101
     20 C         141.6957  139.7386  169.2241 C.ar    1  UNL1        0.0322
     21 C         142.8728  140.4221  169.8544 C.ar    1  UNL1        0.1674
     22 F         143.5555  139.8016  171.0373 F       1  UNL1       -0.2018
     23 C         143.3673  141.7260  169.3019 C.ar    1  UNL1        0.1676
     24 F         144.5444  142.4095  169.9323 F       1  UNL1       -0.2018
     25 C         142.6846  142.3464  168.1192 C.ar    1  UNL1        0.0396
@<TRIPOS>BOND
     1    10    11    1
     2    11    12    1
     3    12    13    1
     4    13    14    1
     5    14    15    1
     6    15     1    1
     7     1     2    2
     8     2     3    1
     9     3     4    2
    10     4     5    1
    11     5     6    2
    12     6     7    1
    13     7    18    1
    14    18    19   ar
    15    19    20   ar
    16    20    21   ar
    17    21    22    1
    18    21    23   ar
    19    23    24    1
    20    23    25   ar
    21     7     8    2
    22     8     9    1
    23    15    16    1
    24    16    17    1
    25    17    11    1
    26     9     1    1
    27     9     5    1
    28    25    18   ar
@<TRIPOS>MOLECULE
*****
 25 28 0 0 0
SMALL
GASTEIGER

@<TRIPOS>ATOM
      1 C         142.7382  138.3354  157.7331 C.2     1  UNL1        0.3579
      2 N         143.2365  139.6661  157.2529 N.2     1  UNL1       -0.0354
      3 C         144.0753  139.7496  156.0122 C.2     1  UNL1        0.2392
      4 C         144.4158  138.5023  155.2517 C.2     1  UNL1        0.0975
      5 C         143.9175  137.1715  155.7319 C.2     1  UNL1        0.2357
      6 N         144.0900  135.7817  155.1947 N.2     1  UNL1       -0.0340
      7 C         143.3578  134.8393  156.1034 C.2     1  UNL1        0.3712
      8 N         142.7328  135.6466  157.2022 N.2     1  UNL1       -0.0428
      9 C         143.0787  137.0881  156.9726 C.3     1  UNL1        0.3825
     10 C         138.1656  138.3085  162.0599 C.3     1  UNL1        0.0897
     11 N         139.4512  138.2375  161.2904 N.3     1  UNL1       -0.2679
     12 C         140.6725  137.9001  162.0933 C.3     1  UNL1        0.0765
     13 C         142.0897  137.7551  161.6239 C.3     1  UNL1        0.0681
     14 C         142.6357  137.9117  160.2356 C.3     1  UNL1        0.2036
     15 N         141.8993  138.2518  158.9739 N.pl3   1  UNL1       -0.1887
     16 C         140.4351  138.5195  158.7887 C.3     1  UNL1        0.2195
     17 C         139.3455  138.5131  159.8198 C.3     1  UNL1        0.1236
     18 C         143.2667  133.3508  155.9416 C.ar    1  UNL1        0.0904
     19 C         144.4984  132.5051  156.0749 C.ar    1  UNL1        0.0101
     20 C         144.4072  131.0166  155.9131 C.ar    1  UNL1        0.0322
     21 C         143.0844  130.3739  155.6179 C.ar    1  UNL1        0.1674
     22 F         142.9933  128.8854  155.4561 F       1  UNL1       -0.2018
     23 C         141.8528  131.2196  155.4846 C.ar    1  UNL1        0.1676
     24 F         140.5300  130.5769  155.1894 F       1  UNL1       -0.2018
     25 C         141.9439  132.7080  155.6464 C.ar    1  UNL1        0.0396
@<TRIPOS>BOND
     1    10    11    1
     2    11    12    1
     3    12    13    1
     4    13    14    1
     5    14    15    1
     6    15     1    1
     7     1     2    2
     8     2     3    1
     9     3     4    2
    10     4     5    1
    11     5     6    2
    12     6     7    1
    13     7    18    1
    14    18    19   ar
    15    19    20   ar
    16    20    21   ar
    17    21    22    1
    18    21    23   ar
    19    23    24    1
    20    23    25   ar
    21     7     8    2
    22     8     9    1
    23    15    16    1
    24    16    17    1
    25    17    11    1
    26     9     1    1
    27     9     5    1
    28    25    18   ar
@<TRIPOS>MOLECULE
*****
 25 28 0 0 0
SMALL
GASTEIGER

@<TRIPOS>ATOM
      1 C         142.3537  143.5099  161.9070 C.2     1  UNL1        0.3579
      2 N         143.3624  144.5987  162.1237 N.2     1  UNL1       -0.0354
      3 C         143.8994  144.8605  163.4995 C.2     1  UNL1        0.2392
      4 C         143.4277  144.0336  164.6587 C.2     1  UNL1        0.0975
      5 C         142.4190  142.9447  164.4420 C.2     1  UNL1        0.2357
      6 N         141.7721  141.9737  165.3846 N.2     1  UNL1       -0.0340
      7 C         140.8353  141.1117  164.5913 C.2     1  UNL1        0.3712
      8 N         140.9032  141.5499  163.1584 N.2     1  UNL1       -0.0428
      9 C         141.8821  142.6829  163.0661 C.3     1  UNL1        0.3825
     10 C         139.0681  143.2793  156.5420 C.3     1  UNL1        0.0897
     11 N         140.0576  143.1245  157.6587 N.3     1  UNL1       -0.2679
     12 C         141.2231  142.2238  157.3753 C.3     1  UNL1        0.0765
     13 C         142.3696  141.8670  158.2742 C.3     1  UNL1        0.0681
     14 C         142.6338  142.3228  159.6787 C.3     1  UNL1        0.2036
     15 N         141.8167  143.2479  160.5310 N.pl3   1  UNL1       -0.1887
     16 C         140.5337  143.9458  160.1895 C.3     1  UNL1        0.2195
     17 C         139.7508  143.8908  158.9111 C.3     1  UNL1        0.1236
     18 C         139.9806  140.0055  165.1354 C.ar    1  UNL1        0.0904
     19 C         139.7997  138.7413  164.3488 C.ar    1  UNL1        0.0101
     20 C         138.9450  137.6352  164.8929 C.ar    1  UNL1        0.0322
     21 C         138.2713  137.7934  166.2237 C.ar    1  UNL1        0.1674
     22 F         137.4165  136.6873  166.7679 F       1  UNL1       -0.2018
     23 C         138.4522  139.0577  167.0104 C.ar    1  UNL1        0.1676
     24 F         137.7784  139.2159  168.3412 F       1  UNL1       -0.2018
     25 C         139.3068  140.1637  166.4662 C.ar    1  UNL1        0.0396
@<TRIPOS>BOND
     1    10    11    1
     2    11    12    1
     3    12    13    1
     4    13    14    1
     5    14    15    1
     6    15     1    1
     7     1     2    2
     8     2     3    1
     9     3     4    2
    10     4     5    1
    11     5     6    2
    12     6     7    1
    13     7    18    1
    14    18    19   ar
    15    19    20   ar
    16    20    21   ar
    17    21    22    1
    18    21    23   ar
    19    23    24    1
    20    23    25   ar
    21     7     8    2
    22     8     9    1
    23    15    16    1
    24    16    17    1
    25    17    11    1
    26     9     1    1
    27     9     5    1
    28    25    18   ar
@<TRIPOS>MOLECULE
*****
 25 28 0 0 0
SMALL
GASTEIGER

@<TRIPOS>ATOM
      1 C         140.3533  143.0322  160.9891 C.2     1  UNL1        0.3579
      2 N         140.3197  144.2970  160.1835 N.2     1  UNL1       -0.0354
      3 C         140.1615  145.6204  160.8717 C.2     1  UNL1        0.2392
      4 C         140.0370  145.6790  162.3653 C.2     1  UNL1        0.0975
      5 C         140.0706  144.4141  163.1709 C.2     1  UNL1        0.2357
      6 N         139.9718  144.1606  164.6460 N.2     1  UNL1       -0.0340
      7 C         140.0689  142.6806  164.8696 C.2     1  UNL1        0.3712
      8 N         140.2277  142.0193  163.5326 N.2     1  UNL1       -0.0428
      9 C         140.2287  143.0907  162.4828 C.3     1  UNL1        0.3825
     10 C         142.3919  137.7767  158.1865 C.3     1  UNL1        0.0897
     11 N         141.6029  138.8949  158.8005 N.3     1  UNL1       -0.2679
     12 C         140.1128  138.7240  158.7868 C.3     1  UNL1        0.0765
     13 C         139.0600  139.6521  159.3162 C.3     1  UNL1        0.0681
     14 C         139.2375  140.9805  159.9901 C.3     1  UNL1        0.2036
     15 N         140.5115  141.7087  160.3010 N.pl3   1  UNL1       -0.1887
     16 C         141.9226  141.2885  160.0148 C.3     1  UNL1        0.2195
     17 C         142.4084  140.0362  159.3470 C.3     1  UNL1        0.1236
     18 C         140.0164  141.9841  166.1971 C.ar    1  UNL1        0.0904
     19 C         139.4488  140.5991  166.2955 C.ar    1  UNL1        0.0101
     20 C         139.3963  139.9027  167.6230 C.ar    1  UNL1        0.0322
     21 C         139.9114  140.5913  168.8520 C.ar    1  UNL1        0.1674
     22 F         139.8589  139.8948  170.1795 F       1  UNL1       -0.2018
     23 C         140.4789  141.9762  168.7536 C.ar    1  UNL1        0.1676
     24 F         140.9940  142.6648  169.9827 F       1  UNL1       -0.2018
     25 C         140.5314  142.6726  167.4262 C.ar    1  UNL1        0.0396
@<TRIPOS>BOND
     1    10    11    1
     2    11    12    1
     3    12    13    1
     4    13    14    1
     5    14    15    1
     6    15     1    1
     7     1     2    2
     8     2     3    1
     9     3     4    2
    10     4     5    1
    11     5     6    2
    12     6     7    1
    13     7    18    1
    14    18    19   ar
    15    19    20   ar
    16    20    21   ar
    17    21    22    1
    18    21    23   ar
    19    23    24    1
    20    23    25   ar
    21     7     8    2
    22     8     9    1
    23    15    16    1
    24    16    17    1
    25    17    11    1
    26     9     1    1
    27     9     5    1
    28    25    18   ar
