@<TRIPOS>MOLECULE
*****
 35 37 0 0 0
SMALL
GASTEIGER

@<TRIPOS>ATOM
      1 C         142.9946  140.4454  165.3859 C.2     1  UNL1        0.2521
      2 O         144.0236  139.3555  165.3300 O.2     1  UNL1       -0.2698
      3 N         142.7098  141.2712  164.1665 N.am    1  UNL1       -0.2725
      4 C         141.6808  142.3612  164.2224 C.3     1  UNL1        0.1152
      5 C         141.3959  143.1869  163.0029 C.3     1  UNL1        0.1137
      6 N         142.1400  142.9226  161.7276 N.pl3   1  UNL1       -0.2885
      7 C         143.1690  141.8326  161.6717 C.3     1  UNL1        0.1137
      8 C         143.4538  141.0069  162.8912 C.3     1  UNL1        0.1152
      9 C         140.9213  140.0581  166.9029 C.ar    1  UNL1        0.1432
     10 C         140.1772  140.3224  168.1782 C.ar    1  UNL1        0.0384
     11 C         140.7624  141.2385  169.2119 C.ar    1  UNL1        0.0215
     12 C         142.0916  141.8902  168.9703 C.ar    1  UNL1        0.1061
     13 C         142.8357  141.6258  167.6949 C.ar    1  UNL1        0.0259
     14 C         142.2505  140.7098  166.6613 C.ar    1  UNL1        0.0887
     15 S         142.6768  142.8062  170.0039 S.O2    1  UNL1        0.0105
     16 C         143.2620  143.7222  171.0376 C.3     1  UNL1        0.1816
     17 O         141.3449  142.8833  170.6895 O.2     1  UNL1       -0.1686
     18 O         144.0087  142.7290  169.3183 O.2     1  UNL1       -0.1686
     19 O         140.3361  139.1421  165.8693 O.3     1  UNL1       -0.4702
     20 C         138.1108  140.1088  164.9402 C.3     1  UNL1        0.0566
     21 C         138.8480  139.0498  165.7051 C.3     1  UNL1        0.2599
     22 C         138.0971  137.8986  166.3058 C.3     1  UNL1        0.4340
     23 F         137.3462  136.7474  166.9064 F       1  UNL1       -0.1664
     24 F         137.3444  138.8499  167.1881 F       1  UNL1       -0.1664
     25 F         138.8498  136.9473  165.4235 F       1  UNL1       -0.1664
     26 C         141.8552  143.7483  160.5081 C.ar    1  UNL1        0.1512
     27 C         140.6642  144.6599  160.4811 C.ar    1  UNL1        0.1330
     28 N         140.3793  145.4856  159.2616 N.ar    1  UNL1       -0.2354
     29 C         141.2854  145.3997  158.0692 C.ar    1  UNL1        0.1719
     30 C         142.4763  144.4882  158.0963 C.ar    1  UNL1        0.1234
     31 N         142.7612  143.6624  159.3158 N.ar    1  UNL1       -0.2260
     32 C         141.0005  146.2254  156.8498 C.3     1  UNL1        0.4363
     33 F         140.7157  147.0511  155.6303 F       1  UNL1       -0.1644
     34 F         142.2283  145.6727  156.1887 F       1  UNL1       -0.1644
     35 F         139.7728  146.7782  157.5109 F       1  UNL1       -0.1644
@<TRIPOS>BOND
     1    20    21    1
     2    21    19    1
     3    19     9    1
     4     9    10   ar
     5    10    11   ar
     6    11    12   ar
     7    12    15    1
     8    15    16    1
     9    15    17    2
    10    15    18    2
    11    12    13   ar
    12    13    14   ar
    13    14     1    1
    14     1     2    2
    15     1     3   am
    16     3     4    1
    17     4     5    1
    18     5     6    1
    19     6    26    1
    20    26    27   ar
    21    27    28   ar
    22    28    29   ar
    23    29    32    1
    24    32    33    1
    25    32    34    1
    26    32    35    1
    27    29    30   ar
    28    30    31   ar
    29     6     7    1
    30     7     8    1
    31    21    22    1
    32    22    23    1
    33    22    24    1
    34    22    25    1
    35    14     9   ar
    36     8     3    1
    37    31    26   ar
@<TRIPOS>MOLECULE
*****
 35 37 0 0 0
SMALL
GASTEIGER

@<TRIPOS>ATOM
      1 C         139.2637  142.2941  164.5862 C.2     1  UNL1        0.2521
      2 O         138.0158  143.1117  164.4318 O.2     1  UNL1       -0.2698
      3 N         140.1986  142.1258  163.4253 N.am    1  UNL1       -0.2725
      4 C         141.4466  141.3081  163.5798 C.3     1  UNL1        0.1152
      5 C         142.3815  141.1398  162.4189 C.3     1  UNL1        0.1137
      6 N         142.0683  141.7893  161.1035 N.pl3   1  UNL1       -0.2885
      7 C         140.8203  142.6069  160.9491 C.3     1  UNL1        0.1137
      8 C         139.8855  142.7752  162.1100 C.3     1  UNL1        0.1152
      9 C         139.0109  140.2936  166.2247 C.ar    1  UNL1        0.1432
     10 C         139.3241  139.6442  167.5400 C.ar    1  UNL1        0.0384
     11 C         140.2034  140.3458  168.5323 C.ar    1  UNL1        0.0215
     12 C         140.7694  141.6968  168.2093 C.ar    1  UNL1        0.1061
     13 C         140.4562  142.3462  166.8940 C.ar    1  UNL1        0.0259
     14 C         139.5769  141.6446  165.9016 C.ar    1  UNL1        0.0887
     15 S         141.6486  142.3984  169.2016 S.O2    1  UNL1        0.0105
     16 C         142.5279  143.1000  170.1939 C.3     1  UNL1        0.1816
     17 O         142.7441  141.4106  168.9294 O.2     1  UNL1       -0.1686
     18 O         140.5532  143.3863  169.4738 O.2     1  UNL1       -0.1686
     19 O         138.1317  139.5920  165.2324 O.3     1  UNL1       -0.4702
     20 C         138.3623  138.9668  162.7212 C.3     1  UNL1        0.0566
     21 C         138.7430  138.7459  164.1552 C.3     1  UNL1        0.2599
     22 C         139.7351  137.6788  164.5120 C.3     1  UNL1        0.4340
     23 F         140.7271  136.6118  164.8687 F       1  UNL1       -0.1664
     24 F         138.7493  137.0837  165.4732 F       1  UNL1       -0.1664
     25 F         140.7208  138.2740  163.5508 F       1  UNL1       -0.1664
     26 C         143.0032  141.6210  159.9426 C.ar    1  UNL1        0.1512
     27 C         143.2054  140.2654  159.3329 C.ar    1  UNL1        0.1330
     28 N         144.1403  140.0972  158.1719 N.ar    1  UNL1       -0.2354
     29 C         144.8729  141.2845  157.6207 C.ar    1  UNL1        0.1719
     30 C         144.6706  142.6399  158.2305 C.ar    1  UNL1        0.1234
     31 N         143.7358  142.8082  159.3914 N.ar    1  UNL1       -0.2260
     32 C         145.8077  141.1162  156.4598 C.3     1  UNL1        0.4363
     33 F         146.7426  140.9479  155.2989 F       1  UNL1       -0.1644
     34 F         145.1150  139.8390  156.0871 F       1  UNL1       -0.1644
     35 F         146.5005  142.3934  156.8325 F       1  UNL1       -0.1644
@<TRIPOS>BOND
     1    20    21    1
     2    21    19    1
     3    19     9    1
     4     9    10   ar
     5    10    11   ar
     6    11    12   ar
     7    12    15    1
     8    15    16    1
     9    15    17    2
    10    15    18    2
    11    12    13   ar
    12    13    14   ar
    13    14     1    1
    14     1     2    2
    15     1     3   am
    16     3     4    1
    17     4     5    1
    18     5     6    1
    19     6    26    1
    20    26    27   ar
    21    27    28   ar
    22    28    29   ar
    23    29    32    1
    24    32    33    1
    25    32    34    1
    26    32    35    1
    27    29    30   ar
    28    30    31   ar
    29     6     7    1
    30     7     8    1
    31    21    22    1
    32    22    23    1
    33    22    24    1
    34    22    25    1
    35    14     9   ar
    36     8     3    1
    37    31    26   ar
@<TRIPOS>MOLECULE
*****
 35 37 0 0 0
SMALL
GASTEIGER

@<TRIPOS>ATOM
      1 C         139.8522  139.4878  164.8903 C.2     1  UNL1        0.2521
      2 O         138.9614  138.2839  164.8066 O.2     1  UNL1       -0.2698
      3 N         139.9529  140.4287  163.7265 N.am    1  UNL1       -0.2725
      4 C         140.8437  141.6327  163.8102 C.3     1  UNL1        0.1152
      5 C         140.9444  142.5736  162.6464 C.3     1  UNL1        0.1137
      6 N         140.1541  142.3106  161.3988 N.pl3   1  UNL1       -0.2885
      7 C         139.2634  141.1067  161.3151 C.3     1  UNL1        0.1137
      8 C         139.1627  140.1658  162.4789 C.3     1  UNL1        0.1152
      9 C         141.9734  139.0881  166.3364 C.ar    1  UNL1        0.1432
     10 C         142.7635  139.3512  167.5839 C.ar    1  UNL1        0.0384
     11 C         142.2227  140.2769  168.6330 C.ar    1  UNL1        0.0215
     12 C         140.8918  140.9396  168.4345 C.ar    1  UNL1        0.1061
     13 C         140.1017  140.6766  167.1870 C.ar    1  UNL1        0.0259
     14 C         140.6425  139.7508  166.1379 C.ar    1  UNL1        0.0887
     15 S         140.3510  141.8654  169.4836 S.O2    1  UNL1        0.0105
     16 C         139.8102  142.7911  170.5327 C.3     1  UNL1        0.1816
     17 O         141.4603  142.8345  169.2002 O.2     1  UNL1       -0.1686
     18 O         139.2418  140.8962  169.7670 O.2     1  UNL1       -0.1686
     19 O         142.5142  138.1624  165.2873 O.3     1  UNL1       -0.4702
     20 C         142.7621  138.3754  162.7099 C.3     1  UNL1        0.0566
     21 C         143.2304  138.7192  164.0928 C.3     1  UNL1        0.2599
     22 C         144.4151  139.6199  164.2812 C.3     1  UNL1        0.4340
     23 F         145.5997  140.5205  164.4695 F       1  UNL1       -0.1664
     24 F         143.8276  140.5966  163.3060 F       1  UNL1       -0.1664
     25 F         145.0025  138.6433  165.2563 F       1  UNL1       -0.1664
     26 C         140.2548  143.2515  160.2349 C.ar    1  UNL1        0.1512
     27 C         139.5442  142.9363  158.9520 C.ar    1  UNL1        0.1330
     28 N         139.6448  143.8773  157.7882 N.ar    1  UNL1       -0.2354
     29 C         140.4561  145.1334  157.9073 C.ar    1  UNL1        0.1719
     30 C         141.1666  145.4485  159.1901 C.ar    1  UNL1        0.1234
     31 N         141.0660  144.5076  160.3539 N.ar    1  UNL1       -0.2260
     32 C         140.5567  146.0743  156.7434 C.3     1  UNL1        0.4363
     33 F         140.6573  147.0153  155.5796 F       1  UNL1       -0.1644
     34 F         142.0018  146.3167  157.0643 F       1  UNL1       -0.1644
     35 F         139.1116  145.8320  156.4225 F       1  UNL1       -0.1644
@<TRIPOS>BOND
     1    20    21    1
     2    21    19    1
     3    19     9    1
     4     9    10   ar
     5    10    11   ar
     6    11    12   ar
     7    12    15    1
     8    15    16    1
     9    15    17    2
    10    15    18    2
    11    12    13   ar
    12    13    14   ar
    13    14     1    1
    14     1     2    2
    15     1     3   am
    16     3     4    1
    17     4     5    1
    18     5     6    1
    19     6    26    1
    20    26    27   ar
    21    27    28   ar
    22    28    29   ar
    23    29    32    1
    24    32    33    1
    25    32    34    1
    26    32    35    1
    27    29    30   ar
    28    30    31   ar
    29     6     7    1
    30     7     8    1
    31    21    22    1
    32    22    23    1
    33    22    24    1
    34    22    25    1
    35    14     9   ar
    36     8     3    1
    37    31    26   ar
@<TRIPOS>MOLECULE
*****
 35 37 0 0 0
SMALL
GASTEIGER

@<TRIPOS>ATOM
      1 C         141.4330  138.0410  164.4322 C.2     1  UNL1        0.2521
      2 O         141.3186  136.5478  164.5168 O.2     1  UNL1       -0.2698
      3 N         142.0422  138.6791  163.2191 N.am    1  UNL1       -0.2725
      4 C         142.1565  140.1724  163.1345 C.3     1  UNL1        0.1152
      5 C         142.7657  140.8104  161.9214 C.3     1  UNL1        0.1137
      6 N         143.2605  139.9551  160.7927 N.pl3   1  UNL1       -0.2885
      7 C         143.1461  138.4619  160.8773 C.3     1  UNL1        0.1137
      8 C         142.5369  137.8239  162.0905 C.3     1  UNL1        0.1152
      9 C         139.4745  139.1996  165.6862 C.ar    1  UNL1        0.1432
     10 C         138.9798  140.0548  166.8148 C.ar    1  UNL1        0.0384
     11 C         139.9487  140.6067  167.8181 C.ar    1  UNL1        0.0215
     12 C         141.4123  140.3035  167.6928 C.ar    1  UNL1        0.1061
     13 C         141.9071  139.4482  166.5642 C.ar    1  UNL1        0.0259
     14 C         140.9382  138.8963  165.5609 C.ar    1  UNL1        0.0887
     15 S         142.3812  140.8554  168.6961 S.O2    1  UNL1        0.0105
     16 C         143.3501  141.4073  169.6994 C.3     1  UNL1        0.1816
     17 O         142.9747  139.4894  168.8744 O.2     1  UNL1       -0.1686
     18 O         141.7877  142.2214  168.5178 O.2     1  UNL1       -0.1686
     19 O         138.5056  138.6476  164.6829 O.3     1  UNL1       -0.4702
     20 C         137.9151  140.7480  163.2724 C.3     1  UNL1        0.0566
     21 C         138.3472  139.3136  163.3483 C.3     1  UNL1        0.2599
     22 C         138.6207  138.5451  162.0894 C.3     1  UNL1        0.4340
     23 F         138.8943  137.7766  160.8306 F       1  UNL1       -0.1664
     24 F         138.7572  139.8331  161.3328 F       1  UNL1       -0.1664
     25 F         138.4843  137.2572  162.8460 F       1  UNL1       -0.1664
     26 C         143.8697  140.5932  159.5795 C.ar    1  UNL1        0.1512
     27 C         144.2486  142.0444  159.6057 C.ar    1  UNL1        0.1330
     28 N         144.8578  142.6824  158.3925 N.ar    1  UNL1       -0.2354
     29 C         145.0881  141.8692  157.1532 C.ar    1  UNL1        0.1719
     30 C         144.7093  140.4181  157.1271 C.ar    1  UNL1        0.1234
     31 N         144.1001  139.7801  158.3403 N.ar    1  UNL1       -0.2260
     32 C         145.6973  142.5073  155.9400 C.3     1  UNL1        0.4363
     33 F         146.3065  143.1453  154.7268 F       1  UNL1       -0.1644
     34 F         147.0366  141.9476  156.3182 F       1  UNL1       -0.1644
     35 F         144.3580  143.0669  155.5618 F       1  UNL1       -0.1644
@<TRIPOS>BOND
     1    20    21    1
     2    21    19    1
     3    19     9    1
     4     9    10   ar
     5    10    11   ar
     6    11    12   ar
     7    12    15    1
     8    15    16    1
     9    15    17    2
    10    15    18    2
    11    12    13   ar
    12    13    14   ar
    13    14     1    1
    14     1     2    2
    15     1     3   am
    16     3     4    1
    17     4     5    1
    18     5     6    1
    19     6    26    1
    20    26    27   ar
    21    27    28   ar
    22    28    29   ar
    23    29    32    1
    24    32    33    1
    25    32    34    1
    26    32    35    1
    27    29    30   ar
    28    30    31   ar
    29     6     7    1
    30     7     8    1
    31    21    22    1
    32    22    23    1
    33    22    24    1
    34    22    25    1
    35    14     9   ar
    36     8     3    1
    37    31    26   ar
@<TRIPOS>MOLECULE
*****
 35 37 0 0 0
SMALL
GASTEIGER

@<TRIPOS>ATOM
      1 C         143.0119  143.5859  163.4263 C.2     1  UNL1        0.2521
      2 O         143.8203  144.8470  163.3492 O.2     1  UNL1       -0.2698
      3 N         143.0578  142.5956  162.3005 N.am    1  UNL1       -0.2725
      4 C         142.2493  141.3344  162.3776 C.3     1  UNL1        0.1152
      5 C         142.2952  140.3442  161.2518 C.3     1  UNL1        0.1137
      6 N         143.1495  140.6152  160.0490 N.pl3   1  UNL1       -0.2885
      7 C         143.9579  141.8763  159.9719 C.3     1  UNL1        0.1137
      8 C         143.9120  142.8665  161.0977 C.3     1  UNL1        0.1152
      9 C         140.7329  143.7834  164.6581 C.ar    1  UNL1        0.1432
     10 C         139.8787  143.5124  165.8610 C.ar    1  UNL1        0.0384
     11 C         140.4491  142.7729  167.0348 C.ar    1  UNL1        0.0215
     12 C         141.8737  142.3044  167.0058 C.ar    1  UNL1        0.1061
     13 C         142.7280  142.5754  165.8030 C.ar    1  UNL1        0.0259
     14 C         142.1576  143.3149  164.6291 C.ar    1  UNL1        0.0887
     15 S         142.4441  141.5650  168.1796 S.O2    1  UNL1        0.0105
     16 C         143.0145  140.8255  169.3534 C.3     1  UNL1        0.1816
     17 O         143.4739  142.6411  168.3571 O.2     1  UNL1       -0.1686
     18 O         141.4143  140.4888  168.0021 O.2     1  UNL1       -0.1686
     19 O         140.1626  144.5229  163.4843 O.3     1  UNL1       -0.4702
     20 C         139.8161  143.8348  161.0031 C.3     1  UNL1        0.0566
     21 C         139.3830  143.7825  162.4383 C.3     1  UNL1        0.2599
     22 C         138.1704  142.9899  162.8275 C.3     1  UNL1        0.4340
     23 F         136.9578  142.1974  163.2166 F       1  UNL1       -0.1664
     24 F         138.9502  141.7185  162.6681 F       1  UNL1       -0.1664
     25 F         137.3906  144.2613  162.9868 F       1  UNL1       -0.1664
     26 C         143.1953  139.6249  158.9232 C.ar    1  UNL1        0.1512
     27 C         143.8242  140.0048  157.6154 C.ar    1  UNL1        0.1330
     28 N         143.8700  139.0146  156.4896 N.ar    1  UNL1       -0.2354
     29 C         143.2871  137.6445  156.6717 C.ar    1  UNL1        0.1719
     30 C         142.6582  137.2647  157.9795 C.ar    1  UNL1        0.1234
     31 N         142.6124  138.2549  159.1052 N.ar    1  UNL1       -0.2260
     32 C         143.3329  136.6543  155.5459 C.3     1  UNL1        0.4363
     33 F         143.3788  135.6640  154.4202 F       1  UNL1       -0.1644
     34 F         144.8002  136.9153  155.3761 F       1  UNL1       -0.1644
     35 F         141.8656  136.3932  155.7158 F       1  UNL1       -0.1644
@<TRIPOS>BOND
     1    20    21    1
     2    21    19    1
     3    19     9    1
     4     9    10   ar
     5    10    11   ar
     6    11    12   ar
     7    12    15    1
     8    15    16    1
     9    15    17    2
    10    15    18    2
    11    12    13   ar
    12    13    14   ar
    13    14     1    1
    14     1     2    2
    15     1     3   am
    16     3     4    1
    17     4     5    1
    18     5     6    1
    19     6    26    1
    20    26    27   ar
    21    27    28   ar
    22    28    29   ar
    23    29    32    1
    24    32    33    1
    25    32    34    1
    26    32    35    1
    27    29    30   ar
    28    30    31   ar
    29     6     7    1
    30     7     8    1
    31    21    22    1
    32    22    23    1
    33    22    24    1
    34    22    25    1
    35    14     9   ar
    36     8     3    1
    37    31    26   ar
@<TRIPOS>MOLECULE
*****
 35 37 0 0 0
SMALL
GASTEIGER

@<TRIPOS>ATOM
      1 C         144.3140  141.4193  164.1225 C.2     1  UNL1        0.2521
      2 O         145.8073  141.2791  164.1019 O.2     1  UNL1       -0.2698
      3 N         143.6038  142.0485  162.9607 N.am    1  UNL1       -0.2725
      4 C         142.1104  142.1887  162.9813 C.3     1  UNL1        0.1152
      5 C         141.4002  142.8179  161.8195 C.3     1  UNL1        0.1137
      6 N         142.1832  143.3068  160.6372 N.pl3   1  UNL1       -0.2885
      7 C         143.6765  143.1665  160.6167 C.3     1  UNL1        0.1137
      8 C         144.3868  142.5374  161.7784 C.3     1  UNL1        0.1152
      9 C         143.0734  139.5031  165.3631 C.ar    1  UNL1        0.1432
     10 C         142.2904  139.0143  166.5454 C.ar    1  UNL1        0.0384
     11 C         141.9649  139.9527  167.6694 C.ar    1  UNL1        0.0215
     12 C         142.4225  141.3800  167.6111 C.ar    1  UNL1        0.1061
     13 C         143.2055  141.8689  166.4288 C.ar    1  UNL1        0.0259
     14 C         143.5310  140.9304  165.3048 C.ar    1  UNL1        0.0887
     15 S         142.0970  142.3185  168.7351 S.O2    1  UNL1        0.0105
     16 C         141.7716  143.2569  169.8591 C.3     1  UNL1        0.1816
     17 O         143.5529  142.6491  168.8807 O.2     1  UNL1       -0.1686
     18 O         140.6412  141.9879  168.5896 O.2     1  UNL1       -0.1686
     19 O         143.3989  138.5647  164.2391 O.3     1  UNL1       -0.4702
     20 C         142.8824  138.6098  161.6933 C.3     1  UNL1        0.0566
     21 C         142.4316  138.3869  163.1065 C.3     1  UNL1        0.2599
     22 C         141.0136  137.9864  163.3871 C.3     1  UNL1        0.4340
     23 F         139.5955  137.5859  163.6677 F       1  UNL1       -0.1664
     24 F         141.4982  136.7208  164.0300 F       1  UNL1       -0.1664
     25 F         140.5289  139.2520  162.7443 F       1  UNL1       -0.1664
     26 C         141.4729  143.9359  159.4754 C.ar    1  UNL1        0.1512
     27 C         140.2306  143.3019  158.9233 C.ar    1  UNL1        0.1330
     28 N         139.5204  143.9311  157.7615 N.ar    1  UNL1       -0.2354
     29 C         140.0524  145.1942  157.1519 C.ar    1  UNL1        0.1719
     30 C         141.2946  145.8281  157.7041 C.ar    1  UNL1        0.1234
     31 N         142.0049  145.1990  158.8659 N.ar    1  UNL1       -0.2260
     32 C         139.3421  145.8233  155.9902 C.3     1  UNL1        0.4363
     33 F         138.6319  146.4525  154.8284 F       1  UNL1       -0.1644
     34 F         140.3142  146.9655  156.0144 F       1  UNL1       -0.1644
     35 F         138.3700  144.6812  155.9660 F       1  UNL1       -0.1644
@<TRIPOS>BOND
     1    20    21    1
     2    21    19    1
     3    19     9    1
     4     9    10   ar
     5    10    11   ar
     6    11    12   ar
     7    12    15    1
     8    15    16    1
     9    15    17    2
    10    15    18    2
    11    12    13   ar
    12    13    14   ar
    13    14     1    1
    14     1     2    2
    15     1     3   am
    16     3     4    1
    17     4     5    1
    18     5     6    1
    19     6    26    1
    20    26    27   ar
    21    27    28   ar
    22    28    29   ar
    23    29    32    1
    24    32    33    1
    25    32    34    1
    26    32    35    1
    27    29    30   ar
    28    30    31   ar
    29     6     7    1
    30     7     8    1
    31    21    22    1
    32    22    23    1
    33    22    24    1
    34    22    25    1
    35    14     9   ar
    36     8     3    1
    37    31    26   ar
@<TRIPOS>MOLECULE
*****
 35 37 0 0 0
SMALL
GASTEIGER

@<TRIPOS>ATOM
      1 C         139.8315  143.7237  164.9564 C.2     1  UNL1        0.2521
      2 O         139.2095  144.7828  165.8174 O.2     1  UNL1       -0.2698
      3 N         140.0694  143.9861  163.4989 N.am    1  UNL1       -0.2725
      4 C         140.6915  142.9269  162.6379 C.3     1  UNL1        0.1152
      5 C         140.9294  143.1893  161.1803 C.3     1  UNL1        0.1137
      6 N         140.5452  144.5109  160.5837 N.pl3   1  UNL1       -0.2885
      7 C         139.9233  145.5700  161.4447 C.3     1  UNL1        0.1137
      8 C         139.6853  145.3076  162.9022 C.3     1  UNL1        0.1152
      9 C         141.6484  142.1232  165.8985 C.ar    1  UNL1        0.1432
     10 C         142.0325  140.8016  166.4951 C.ar    1  UNL1        0.0384
     11 C         140.9838  139.7589  166.7461 C.ar    1  UNL1        0.0215
     12 C         139.5510  140.0378  166.4007 C.ar    1  UNL1        0.1061
     13 C         139.1670  141.3594  165.8041 C.ar    1  UNL1        0.0259
     14 C         140.2157  142.4021  165.5530 C.ar    1  UNL1        0.0887
     15 S         138.5023  138.9951  166.6518 S.O2    1  UNL1        0.0105
     16 C         137.4536  137.9524  166.9029 C.3     1  UNL1        0.1816
     17 O         138.4225  138.7208  165.1792 O.2     1  UNL1       -0.1686
     18 O         138.5822  139.2694  168.1243 O.2     1  UNL1       -0.1686
     19 O         142.6971  143.1659  165.6474 O.3     1  UNL1       -0.4702
     20 C         144.2984  141.6786  164.2424 C.3     1  UNL1        0.0566
     21 C         143.6531  143.0076  164.5025 C.3     1  UNL1        0.2599
     22 C         143.9639  144.1782  163.6175 C.3     1  UNL1        0.4340
     23 F         144.2748  145.3488  162.7326 F       1  UNL1       -0.1664
     24 F         142.9795  145.0154  164.3792 F       1  UNL1       -0.1664
     25 F         144.9483  143.3411  162.8559 F       1  UNL1       -0.1664
     26 C         140.7831  144.7733  159.1261 C.ar    1  UNL1        0.1512
     27 C         139.8801  144.1610  158.0967 C.ar    1  UNL1        0.1330
     28 N         140.1180  144.4234  156.6391 N.ar    1  UNL1       -0.2354
     29 C         141.2589  145.2981  156.2109 C.ar    1  UNL1        0.1719
     30 C         142.1619  145.9103  157.2404 C.ar    1  UNL1        0.1234
     31 N         141.9240  145.6479  158.6979 N.ar    1  UNL1       -0.2260
     32 C         141.4968  145.5605  154.7534 C.3     1  UNL1        0.4363
     33 F         141.7347  145.8229  153.2958 F       1  UNL1       -0.1644
     34 F         142.2187  144.2509  154.6354 F       1  UNL1       -0.1644
     35 F         140.7750  146.8701  154.8713 F       1  UNL1       -0.1644
@<TRIPOS>BOND
     1    20    21    1
     2    21    19    1
     3    19     9    1
     4     9    10   ar
     5    10    11   ar
     6    11    12   ar
     7    12    15    1
     8    15    16    1
     9    15    17    2
    10    15    18    2
    11    12    13   ar
    12    13    14   ar
    13    14     1    1
    14     1     2    2
    15     1     3   am
    16     3     4    1
    17     4     5    1
    18     5     6    1
    19     6    26    1
    20    26    27   ar
    21    27    28   ar
    22    28    29   ar
    23    29    32    1
    24    32    33    1
    25    32    34    1
    26    32    35    1
    27    29    30   ar
    28    30    31   ar
    29     6     7    1
    30     7     8    1
    31    21    22    1
    32    22    23    1
    33    22    24    1
    34    22    25    1
    35    14     9   ar
    36     8     3    1
    37    31    26   ar
@<TRIPOS>MOLECULE
*****
 35 37 0 0 0
SMALL
GASTEIGER

@<TRIPOS>ATOM
      1 C         141.6265  140.2026  162.9933 C.2     1  UNL1        0.2521
      2 O         142.6539  139.9540  164.0576 O.2     1  UNL1       -0.2698
      3 N         141.7138  139.4782  161.6828 N.am    1  UNL1       -0.2725
      4 C         140.6864  139.7268  160.6185 C.3     1  UNL1        0.1152
      5 C         140.7737  139.0024  159.3079 C.3     1  UNL1        0.1137
      6 N         141.8884  138.0293  159.0616 N.pl3   1  UNL1       -0.2885
      7 C         142.9158  137.7807  160.1258 C.3     1  UNL1        0.1137
      8 C         142.8285  138.5051  161.4364 C.3     1  UNL1        0.1152
      9 C         139.3120  140.7558  164.0360 C.ar    1  UNL1        0.1432
     10 C         138.1974  141.7288  164.2822 C.ar    1  UNL1        0.0384
     11 C         138.2825  143.1217  163.7322 C.ar    1  UNL1        0.0215
     12 C         139.4823  143.5416  162.9358 C.ar    1  UNL1        0.1061
     13 C         140.5969  142.5685  162.6896 C.ar    1  UNL1        0.0259
     14 C         140.5118  141.1756  163.2396 C.ar    1  UNL1        0.0887
     15 S         139.5674  144.9345  162.3858 S.O2    1  UNL1        0.0105
     16 C         139.6526  146.3274  161.8357 C.3     1  UNL1        0.1816
     17 O         138.0700  145.0201  162.3707 O.2     1  UNL1       -0.1686
     18 O         141.0649  144.8489  162.4008 O.2     1  UNL1       -0.1686
     19 O         139.2269  139.3629  164.5860 O.3     1  UNL1       -0.4702
     20 C         139.7287  140.0165  167.0499 C.3     1  UNL1        0.0566
     21 C         139.0162  139.1484  166.0555 C.3     1  UNL1        0.2599
     22 C         138.0929  138.0659  166.5308 C.3     1  UNL1        0.4340
     23 F         137.1698  136.9833  167.0059 F       1  UNL1       -0.1664
     24 F         137.7161  138.9067  167.7144 F       1  UNL1       -0.1664
     25 F         138.4698  137.2250  165.3472 F       1  UNL1       -0.1664
     26 C         141.9757  137.3049  157.7510 C.ar    1  UNL1        0.1512
     27 C         140.8951  137.4778  156.7251 C.ar    1  UNL1        0.1330
     28 N         140.9824  136.7534  155.4145 N.ar    1  UNL1       -0.2354
     29 C         142.1503  135.8561  155.1299 C.ar    1  UNL1        0.1719
     30 C         143.2308  135.6832  156.1558 C.ar    1  UNL1        0.1234
     31 N         143.1435  136.4077  157.4664 N.ar    1  UNL1       -0.2260
     32 C         142.2376  135.1317  153.8193 C.3     1  UNL1        0.4363
     33 F         142.3248  134.4073  152.5087 F       1  UNL1       -0.1644
     34 F         142.8859  133.9666  154.5065 F       1  UNL1       -0.1644
     35 F         141.5892  136.2968  153.1321 F       1  UNL1       -0.1644
@<TRIPOS>BOND
     1    20    21    1
     2    21    19    1
     3    19     9    1
     4     9    10   ar
     5    10    11   ar
     6    11    12   ar
     7    12    15    1
     8    15    16    1
     9    15    17    2
    10    15    18    2
    11    12    13   ar
    12    13    14   ar
    13    14     1    1
    14     1     2    2
    15     1     3   am
    16     3     4    1
    17     4     5    1
    18     5     6    1
    19     6    26    1
    20    26    27   ar
    21    27    28   ar
    22    28    29   ar
    23    29    32    1
    24    32    33    1
    25    32    34    1
    26    32    35    1
    27    29    30   ar
    28    30    31   ar
    29     6     7    1
    30     7     8    1
    31    21    22    1
    32    22    23    1
    33    22    24    1
    34    22    25    1
    35    14     9   ar
    36     8     3    1
    37    31    26   ar
@<TRIPOS>MOLECULE
*****
 35 37 0 0 0
SMALL
GASTEIGER

@<TRIPOS>ATOM
      1 C         139.0281  139.5115  165.5922 C.2     1  UNL1        0.2521
      2 O         137.7512  138.8902  166.0752 O.2     1  UNL1       -0.2698
      3 N         139.5271  139.2206  164.2079 N.am    1  UNL1       -0.2725
      4 C         140.8041  139.8420  163.7249 C.3     1  UNL1        0.1152
      5 C         141.3030  139.5510  162.3406 C.3     1  UNL1        0.1137
      6 N         140.5250  138.6387  161.4392 N.pl3   1  UNL1       -0.2885
      7 C         139.2480  138.0174  161.9222 C.3     1  UNL1        0.1137
      8 C         138.7491  138.3083  163.3065 C.3     1  UNL1        0.1152
      9 C         139.7505  141.9084  166.2871 C.ar    1  UNL1        0.1432
     10 C         140.5285  142.8206  167.1885 C.ar    1  UNL1        0.0384
     11 C         141.3623  142.2482  168.2963 C.ar    1  UNL1        0.0215
     12 C         141.4179  140.7636  168.5027 C.ar    1  UNL1        0.1061
     13 C         140.6399  139.8513  167.6014 C.ar    1  UNL1        0.0259
     14 C         139.8062  140.4238  166.4936 C.ar    1  UNL1        0.0887
     15 S         142.2517  140.1911  169.6105 S.O2    1  UNL1        0.0105
     16 C         143.0854  139.6187  170.7183 C.3     1  UNL1        0.1816
     17 O         142.9786  139.3315  168.6193 O.2     1  UNL1       -0.1686
     18 O         141.5247  141.0507  170.6018 O.2     1  UNL1       -0.1686
     19 O         138.9168  142.4809  165.1793 O.3     1  UNL1       -0.4702
     20 C         138.4464  145.0173  165.4879 C.3     1  UNL1        0.0566
     21 C         139.1204  143.9021  164.7450 C.3     1  UNL1        0.2599
     22 C         139.9980  144.2081  163.5676 C.3     1  UNL1        0.4340
     23 F         140.8756  144.5141  162.3903 F       1  UNL1       -0.1664
     24 F         139.1541  143.3157  162.7065 F       1  UNL1       -0.1664
     25 F         140.8419  145.1005  164.4286 F       1  UNL1       -0.1664
     26 C         141.0239  138.3478  160.0548 C.ar    1  UNL1        0.1512
     27 C         142.4732  138.0323  159.8308 C.ar    1  UNL1        0.1330
     28 N         142.9722  137.7414  158.4465 N.ar    1  UNL1       -0.2354
     29 C         142.0218  137.7660  157.2861 C.ar    1  UNL1        0.1719
     30 C         140.5727  138.0816  157.5102 C.ar    1  UNL1        0.1234
     31 N         140.0737  138.3725  158.8945 N.ar    1  UNL1       -0.2260
     32 C         142.5208  137.4751  155.9018 C.3     1  UNL1        0.4363
     33 F         143.0197  137.1842  154.5174 F       1  UNL1       -0.1644
     34 F         143.0934  138.8589  155.8174 F       1  UNL1       -0.1644
     35 F         141.9482  136.0913  155.9862 F       1  UNL1       -0.1644
@<TRIPOS>BOND
     1    20    21    1
     2    21    19    1
     3    19     9    1
     4     9    10   ar
     5    10    11   ar
     6    11    12   ar
     7    12    15    1
     8    15    16    1
     9    15    17    2
    10    15    18    2
    11    12    13   ar
    12    13    14   ar
    13    14     1    1
    14     1     2    2
    15     1     3   am
    16     3     4    1
    17     4     5    1
    18     5     6    1
    19     6    26    1
    20    26    27   ar
    21    27    28   ar
    22    28    29   ar
    23    29    32    1
    24    32    33    1
    25    32    34    1
    26    32    35    1
    27    29    30   ar
    28    30    31   ar
    29     6     7    1
    30     7     8    1
    31    21    22    1
    32    22    23    1
    33    22    24    1
    34    22    25    1
    35    14     9   ar
    36     8     3    1
    37    31    26   ar
