@<TRIPOS>MOLECULE
*****
 32 35 0 0 0
SMALL
GASTEIGER

@<TRIPOS>ATOM
      1 C         139.4053  139.6295  166.3903 C.ar    1  UNL1        0.0004
      2 C         138.2622  139.7744  165.4299 C.ar    1  UNL1        0.0031
      3 C         138.4762  139.5251  163.9663 C.ar    1  UNL1        0.0370
      4 C         139.8332  139.1308  163.4632 C.ar    1  UNL1        0.1409
      5 C         140.9762  138.9859  164.4236 C.ar    1  UNL1        0.0687
      6 C         140.7622  139.2352  165.8872 C.ar    1  UNL1        0.0059
      7 C         142.3332  138.5916  163.9205 C.2     1  UNL1        0.1795
      8 O         143.4762  138.4467  164.8810 O.2     1  UNL1       -0.2911
      9 C         142.5472  138.3422  162.4569 C.3     1  UNL1        0.1092
     10 C         141.4041  138.4872  161.4964 C.3     1  UNL1        0.1430
     11 C         142.7611  138.0929  160.9933 C.3     1  UNL1        0.0578
     12 C         142.9750  137.8436  159.5298 C.3     1  UNL1        0.0760
     13 N         141.8320  137.9885  158.5694 N.3     1  UNL1       -0.2687
     14 C         140.4750  138.3827  159.0724 C.3     1  UNL1        0.0760
     15 C         140.2611  138.6321  160.5360 C.3     1  UNL1        0.0578
     16 O         140.0471  138.8814  161.9996 O.3     1  UNL1       -0.4820
     17 C         140.3332  140.3387  168.7111 C.2     1  UNL1        0.0598
     18 C         139.1913  139.8788  167.8539 C.2     1  UNL1        0.0047
     19 O         139.4607  139.5426  171.0252 O.2     1  UNL1       -0.2681
     20 C         140.1192  140.5881  170.1747 C.2     1  UNL1        0.2679
     21 N         140.5638  141.8828  170.7877 N.am    1  UNL1       -0.1934
     22 O         140.3499  142.1322  172.2513 O.3     1  UNL1       -0.2949
     23 H         140.9961  142.5690  170.2294 H       1  UNL1        0.1825
     24 H         139.9155  141.3622  172.6504 H       1  UNL1        0.2414
     25 C         142.0460  137.7391  157.1057 C.3     1  UNL1        0.0992
     26 C         142.0490  136.3355  156.5766 C.ar    1  UNL1       -0.0060
     27 C         141.0975  135.9433  155.4855 C.ar    1  UNL1       -0.0006
     28 C         141.1005  134.5396  154.9564 C.ar    1  UNL1        0.0294
     29 C         142.0551  133.5283  155.5185 C.ar    1  UNL1        0.1401
     30 F         142.0581  132.1248  154.9894 F       1  UNL1       -0.2042
     31 C         143.0067  133.9206  156.6097 C.ar    1  UNL1        0.0294
     32 C         143.0036  135.3242  157.1387 C.ar    1  UNL1       -0.0006
@<TRIPOS>BOND
     1    19    20    2
     2    20    17    1
     3    17    18    2
     4    18     1    1
     5     1     2   ar
     6     2     3   ar
     7     3     4   ar
     8     4     5   ar
     9     5     6   ar
    10     5     7    1
    11     7     8    2
    12     7     9    1
    13     9    10    1
    14    10    11    1
    15    11    12    1
    16    12    13    1
    17    13    25    1
    18    25    26    1
    19    26    27   ar
    20    27    28   ar
    21    28    29   ar
    22    29    30    1
    23    29    31   ar
    24    31    32   ar
    25    13    14    1
    26    14    15    1
    27    10    16    1
    28    20    21   am
    29    21    22    1
    30     6     1   ar
    31    15    10    1
    32    16     4    1
    33    32    26   ar
    34    21    23    1
    35    22    24    1
@<TRIPOS>MOLECULE
*****
 32 35 0 0 0
SMALL
GASTEIGER

@<TRIPOS>ATOM
      1 C         141.6204  141.7707  167.0045 C.ar    1  UNL1        0.0004
      2 C         142.6862  141.2075  166.1119 C.ar    1  UNL1        0.0031
      3 C         142.8175  141.6963  164.6999 C.ar    1  UNL1        0.0370
      4 C         141.8829  142.7483  164.1805 C.ar    1  UNL1        0.1409
      5 C         140.8170  143.3115  165.0731 C.ar    1  UNL1        0.0687
      6 C         140.6858  142.8227  166.4851 C.ar    1  UNL1        0.0059
      7 C         139.8824  144.3635  164.5537 C.2     1  UNL1        0.1795
      8 O         138.8166  144.9267  165.4463 O.2     1  UNL1       -0.2911
      9 C         140.0136  144.8523  163.1416 C.3     1  UNL1        0.1092
     10 C         141.0795  144.2891  162.2490 C.3     1  UNL1        0.1430
     11 C         140.1449  145.3411  161.7296 C.3     1  UNL1        0.0578
     12 C         140.2762  145.8299  160.3176 C.3     1  UNL1        0.0760
     13 N         141.3420  145.2667  159.4250 N.3     1  UNL1       -0.2687
     14 C         142.2766  144.2147  159.9444 C.3     1  UNL1        0.0760
     15 C         142.1454  143.7259  161.3564 C.3     1  UNL1        0.0578
     16 O         142.0141  143.2371  162.7684 O.3     1  UNL1       -0.4820
     17 C         140.1655  141.3614  169.1178 C.2     1  UNL1        0.0598
     18 C         141.4891  141.2819  168.4165 C.2     1  UNL1        0.0047
     19 O         140.4253  141.7637  171.6713 O.2     1  UNL1       -0.2681
     20 C         140.0342  140.8726  170.5298 C.2     1  UNL1        0.2679
     21 N         139.5118  139.4928  170.8003 N.am    1  UNL1       -0.1934
     22 O         139.3805  139.0040  172.2123 O.3     1  UNL1       -0.2949
     23 H         139.2551  138.9080  170.0510 H       1  UNL1        0.1825
     24 H         139.6738  139.6980  172.8233 H       1  UNL1        0.2414
     25 C         141.4732  145.7555  158.0129 C.3     1  UNL1        0.0992
     26 C         140.3250  145.6096  157.0589 C.ar    1  UNL1       -0.0060
     27 C         139.8199  146.8039  156.3049 C.ar    1  UNL1       -0.0006
     28 C         138.6715  146.6579  155.3509 C.ar    1  UNL1        0.0294
     29 C         138.0283  145.3177  155.1510 C.ar    1  UNL1        0.1401
     30 F         136.8800  145.1717  154.1970 F       1  UNL1       -0.2042
     31 C         138.5333  144.1234  155.9050 C.ar    1  UNL1        0.0294
     32 C         139.6816  144.2693  156.8590 C.ar    1  UNL1       -0.0006
@<TRIPOS>BOND
     1    19    20    2
     2    20    17    1
     3    17    18    2
     4    18     1    1
     5     1     2   ar
     6     2     3   ar
     7     3     4   ar
     8     4     5   ar
     9     5     6   ar
    10     5     7    1
    11     7     8    2
    12     7     9    1
    13     9    10    1
    14    10    11    1
    15    11    12    1
    16    12    13    1
    17    13    25    1
    18    25    26    1
    19    26    27   ar
    20    27    28   ar
    21    28    29   ar
    22    29    30    1
    23    29    31   ar
    24    31    32   ar
    25    13    14    1
    26    14    15    1
    27    10    16    1
    28    20    21   am
    29    21    22    1
    30     6     1   ar
    31    15    10    1
    32    16     4    1
    33    32    26   ar
    34    21    23    1
    35    22    24    1
@<TRIPOS>MOLECULE
*****
 32 35 0 0 0
SMALL
GASTEIGER

@<TRIPOS>ATOM
      1 C         138.6084  139.4446  165.9333 C.ar    1  UNL1        0.0004
      2 C         138.9956  138.2128  165.1698 C.ar    1  UNL1        0.0031
      3 C         139.0829  138.2547  163.6730 C.ar    1  UNL1        0.0370
      4 C         138.7831  139.5284  162.9395 C.ar    1  UNL1        0.1409
      5 C         138.3960  140.7602  163.7030 C.ar    1  UNL1        0.0687
      6 C         138.3087  140.7182  165.1999 C.ar    1  UNL1        0.0059
      7 C         138.0963  142.0338  162.9696 C.2     1  UNL1        0.1795
      8 O         137.7091  143.2656  163.7330 O.2     1  UNL1       -0.2911
      9 C         138.1836  142.0757  161.4727 C.3     1  UNL1        0.1092
     10 C         138.5707  140.8439  160.7092 C.3     1  UNL1        0.1430
     11 C         138.2710  142.1176  159.9758 C.3     1  UNL1        0.0578
     12 C         138.3583  142.1595  158.4790 C.3     1  UNL1        0.0760
     13 N         138.7454  140.9277  157.7155 N.3     1  UNL1       -0.2687
     14 C         139.0452  139.6540  158.4489 C.3     1  UNL1        0.0760
     15 C         138.9578  139.6122  159.9458 C.3     1  UNL1        0.0578
     16 O         138.8705  139.5702  161.4427 O.3     1  UNL1       -0.4820
     17 C         139.4922  140.1887  168.2604 C.2     1  UNL1        0.0598
     18 C         138.5211  139.4027  167.4301 C.2     1  UNL1        0.0047
     19 O         138.1047  139.8064  170.4234 O.2     1  UNL1       -0.2681
     20 C         139.4049  140.1468  169.7572 C.2     1  UNL1        0.2679
     21 N         140.6176  140.4453  170.5879 N.am    1  UNL1       -0.1934
     22 O         140.5303  140.4035  172.0848 O.3     1  UNL1       -0.2949
     23 H         141.4709  140.6687  170.1506 H       1  UNL1        0.1825
     24 H         139.6269  140.1696  172.3496 H       1  UNL1        0.2414
     25 C         138.8328  140.9696  156.2186 C.3     1  UNL1        0.0992
     26 C         138.2122  139.8764  155.4002 C.ar    1  UNL1       -0.0060
     27 C         136.7635  139.9548  155.0193 C.ar    1  UNL1       -0.0006
     28 C         136.1430  138.8615  154.2009 C.ar    1  UNL1        0.0294
     29 C         136.9712  137.6899  153.7634 C.ar    1  UNL1        0.1401
     30 F         136.3507  136.5967  152.9450 F       1  UNL1       -0.2042
     31 C         138.4199  137.6115  154.1444 C.ar    1  UNL1        0.0294
     32 C         139.0404  138.7047  154.9628 C.ar    1  UNL1       -0.0006
@<TRIPOS>BOND
     1    19    20    2
     2    20    17    1
     3    17    18    2
     4    18     1    1
     5     1     2   ar
     6     2     3   ar
     7     3     4   ar
     8     4     5   ar
     9     5     6   ar
    10     5     7    1
    11     7     8    2
    12     7     9    1
    13     9    10    1
    14    10    11    1
    15    11    12    1
    16    12    13    1
    17    13    25    1
    18    25    26    1
    19    26    27   ar
    20    27    28   ar
    21    28    29   ar
    22    29    30    1
    23    29    31   ar
    24    31    32   ar
    25    13    14    1
    26    14    15    1
    27    10    16    1
    28    20    21   am
    29    21    22    1
    30     6     1   ar
    31    15    10    1
    32    16     4    1
    33    32    26   ar
    34    21    23    1
    35    22    24    1
@<TRIPOS>MOLECULE
*****
 32 35 0 0 0
SMALL
GASTEIGER

@<TRIPOS>ATOM
      1 C         138.6655  139.3385  165.9049 C.ar    1  UNL1        0.0004
      2 C         139.1370  138.0951  165.2109 C.ar    1  UNL1        0.0031
      3 C         139.2523  138.0686  163.7156 C.ar    1  UNL1        0.0370
      4 C         138.8960  139.2856  162.9142 C.ar    1  UNL1        0.1409
      5 C         138.4245  140.5290  163.6082 C.ar    1  UNL1        0.0687
      6 C         138.3093  140.5554  165.1036 C.ar    1  UNL1        0.0059
      7 C         138.0683  141.7459  162.8069 C.2     1  UNL1        0.1795
      8 O         137.5968  142.9893  163.5009 O.2     1  UNL1       -0.2911
      9 C         138.1836  141.7195  161.3115 C.3     1  UNL1        0.1092
     10 C         138.6551  140.4761  160.6175 C.3     1  UNL1        0.1430
     11 C         138.2988  141.6931  159.8162 C.3     1  UNL1        0.0578
     12 C         138.4141  141.6666  158.3209 C.3     1  UNL1        0.0760
     13 N         138.8856  140.4232  157.6269 N.3     1  UNL1       -0.2687
     14 C         139.2419  139.2063  158.4282 C.3     1  UNL1        0.0760
     15 C         139.1266  139.2327  159.9235 C.3     1  UNL1        0.0578
     16 O         139.0113  139.2592  161.4189 O.3     1  UNL1       -0.4820
     17 C         139.5633  140.1105  168.2175 C.2     1  UNL1        0.0598
     18 C         138.5502  139.3650  167.4002 C.2     1  UNL1        0.0047
     19 O         138.1232  139.8801  170.3675 O.2     1  UNL1       -0.2681
     20 C         139.4481  140.1369  169.7128 C.2     1  UNL1        0.2679
     21 N         140.6577  140.4202  170.5533 N.am    1  UNL1       -0.1934
     22 O         140.5424  140.4467  172.0487 O.3     1  UNL1       -0.2949
     23 H         141.5272  140.5888  170.1236 H       1  UNL1        0.1825
     24 H         139.6254  140.2623  172.3056 H       1  UNL1        0.2414
     25 C         139.0009  140.3968  156.1316 C.3     1  UNL1        0.0992
     26 C         138.2348  141.3847  155.3027 C.ar    1  UNL1       -0.0060
     27 C         138.9267  142.5945  154.7480 C.ar    1  UNL1       -0.0006
     28 C         138.1605  143.5825  153.9191 C.ar    1  UNL1        0.0294
     29 C         136.7026  143.3607  153.6450 C.ar    1  UNL1        0.1401
     30 F         135.9365  144.3486  152.8162 F       1  UNL1       -0.2042
     31 C         136.0107  142.1509  154.1997 C.ar    1  UNL1        0.0294
     32 C         136.7768  141.1629  155.0286 C.ar    1  UNL1       -0.0006
@<TRIPOS>BOND
     1    19    20    2
     2    20    17    1
     3    17    18    2
     4    18     1    1
     5     1     2   ar
     6     2     3   ar
     7     3     4   ar
     8     4     5   ar
     9     5     6   ar
    10     5     7    1
    11     7     8    2
    12     7     9    1
    13     9    10    1
    14    10    11    1
    15    11    12    1
    16    12    13    1
    17    13    25    1
    18    25    26    1
    19    26    27   ar
    20    27    28   ar
    21    28    29   ar
    22    29    30    1
    23    29    31   ar
    24    31    32   ar
    25    13    14    1
    26    14    15    1
    27    10    16    1
    28    20    21   am
    29    21    22    1
    30     6     1   ar
    31    15    10    1
    32    16     4    1
    33    32    26   ar
    34    21    23    1
    35    22    24    1
@<TRIPOS>MOLECULE
*****
 32 35 0 0 0
SMALL
GASTEIGER

@<TRIPOS>ATOM
      1 C         140.3877  142.3076  166.1758 C.ar    1  UNL1        0.0004
      2 C         139.2104  141.7141  165.4606 C.ar    1  UNL1        0.0031
      3 C         139.0297  141.9491  163.9902 C.ar    1  UNL1        0.0370
      4 C         140.0264  142.7776  163.2350 C.ar    1  UNL1        0.1409
      5 C         141.2037  143.3711  163.9502 C.ar    1  UNL1        0.0687
      6 C         141.3844  143.1361  165.4207 C.ar    1  UNL1        0.0059
      7 C         142.2003  144.1996  163.1951 C.2     1  UNL1        0.1795
      8 O         143.3777  144.7931  163.9104 O.2     1  UNL1       -0.2911
      9 C         142.0197  144.4346  161.7246 C.3     1  UNL1        0.1092
     10 C         140.8423  143.8411  161.0094 C.3     1  UNL1        0.1430
     11 C         141.8390  144.6696  160.2542 C.3     1  UNL1        0.0578
     12 C         141.6583  144.9045  158.7839 C.3     1  UNL1        0.0760
     13 N         140.4809  144.3110  158.0686 N.3     1  UNL1       -0.2687
     14 C         139.4843  143.4825  158.8237 C.3     1  UNL1        0.0760
     15 C         139.6650  143.2476  160.2941 C.3     1  UNL1        0.0578
     16 O         139.8457  143.0126  161.7646 O.3     1  UNL1       -0.4820
     17 C         140.3633  143.1982  168.6164 C.2     1  UNL1        0.0598
     18 C         140.5684  142.0726  167.6462 C.2     1  UNL1        0.0047
     19 O         139.3635  143.0395  171.0092 O.2     1  UNL1       -0.2681
     20 C         140.5440  142.9632  170.0868 C.2     1  UNL1        0.2679
     21 N         141.9051  142.6519  170.6348 N.am    1  UNL1       -0.1934
     22 O         142.0859  142.4169  172.1053 O.3     1  UNL1       -0.2949
     23 H         142.6798  142.6018  170.0294 H       1  UNL1        0.1825
     24 H         141.2302  142.5027  172.5540 H       1  UNL1        0.2414
     25 C         140.3003  144.5460  156.5981 C.3     1  UNL1        0.0992
     26 C         139.9514  145.9153  156.0947 C.ar    1  UNL1       -0.0060
     27 C         139.1864  146.8636  156.9696 C.ar    1  UNL1       -0.0006
     28 C         138.8376  148.2329  156.4661 C.ar    1  UNL1        0.0294
     29 C         139.2537  148.6538  155.0879 C.ar    1  UNL1        0.1401
     30 F         138.9049  150.0230  154.5845 F       1  UNL1       -0.2042
     31 C         140.0187  147.7054  154.2130 C.ar    1  UNL1        0.0294
     32 C         140.3676  146.3362  154.7164 C.ar    1  UNL1       -0.0006
@<TRIPOS>BOND
     1    19    20    2
     2    20    17    1
     3    17    18    2
     4    18     1    1
     5     1     2   ar
     6     2     3   ar
     7     3     4   ar
     8     4     5   ar
     9     5     6   ar
    10     5     7    1
    11     7     8    2
    12     7     9    1
    13     9    10    1
    14    10    11    1
    15    11    12    1
    16    12    13    1
    17    13    25    1
    18    25    26    1
    19    26    27   ar
    20    27    28   ar
    21    28    29   ar
    22    29    30    1
    23    29    31   ar
    24    31    32   ar
    25    13    14    1
    26    14    15    1
    27    10    16    1
    28    20    21   am
    29    21    22    1
    30     6     1   ar
    31    15    10    1
    32    16     4    1
    33    32    26   ar
    34    21    23    1
    35    22    24    1
@<TRIPOS>MOLECULE
*****
 32 35 0 0 0
SMALL
GASTEIGER

@<TRIPOS>ATOM
      1 C         142.7292  140.7294  166.2012 C.ar    1  UNL1        0.0004
      2 C         143.4053  141.8333  165.4435 C.ar    1  UNL1        0.0031
      3 C         143.6074  141.7120  163.9622 C.ar    1  UNL1        0.0370
      4 C         143.1332  140.4866  163.2384 C.ar    1  UNL1        0.1409
      5 C         142.4570  139.3827  163.9961 C.ar    1  UNL1        0.0687
      6 C         142.2550  139.5041  165.4775 C.ar    1  UNL1        0.0059
      7 C         141.9828  138.1574  163.2724 C.2     1  UNL1        0.1795
      8 O         141.3067  137.0534  164.0301 O.2     1  UNL1       -0.2911
      9 C         142.1848  138.0360  161.7910 C.3     1  UNL1        0.1092
     10 C         142.8610  139.1399  161.0333 C.3     1  UNL1        0.1430
     11 C         142.3868  137.9146  160.3097 C.3     1  UNL1        0.0578
     12 C         142.5888  137.7933  158.8283 C.3     1  UNL1        0.0760
     13 N         143.2650  138.8972  158.0707 N.3     1  UNL1       -0.2687
     14 C         143.7392  140.1226  158.7943 C.3     1  UNL1        0.0760
     15 C         143.5372  140.2439  160.2757 C.3     1  UNL1        0.0578
     16 O         143.3352  140.3653  161.7571 O.3     1  UNL1       -0.4820
     17 C         141.7148  139.8244  168.4153 C.2     1  UNL1        0.0598
     18 C         142.5272  140.8507  167.6825 C.2     1  UNL1        0.0047
     19 O         140.2416  139.4540  170.5230 O.2     1  UNL1       -0.2681
     20 C         141.5128  139.9458  169.8966 C.2     1  UNL1        0.2679
     21 N         142.5819  140.5589  170.7516 N.am    1  UNL1       -0.1934
     22 O         142.3799  140.6803  172.2330 O.3     1  UNL1       -0.2949
     23 H         143.4162  140.8817  170.3404 H       1  UNL1        0.1825
     24 H         141.5126  140.3175  172.4719 H       1  UNL1        0.2414
     25 C         143.4670  138.7759  156.5892 C.3     1  UNL1        0.0992
     26 C         143.0566  137.5214  155.8766 C.ar    1  UNL1       -0.0060
     27 C         144.0221  136.3803  155.7506 C.ar    1  UNL1       -0.0006
     28 C         143.6116  135.1258  155.0379 C.ar    1  UNL1        0.0294
     29 C         142.2357  135.0124  154.4514 C.ar    1  UNL1        0.1401
     30 F         141.8253  133.7579  153.7388 F       1  UNL1       -0.2042
     31 C         141.2702  136.1534  154.5775 C.ar    1  UNL1        0.0294
     32 C         141.6806  137.4079  155.2901 C.ar    1  UNL1       -0.0006
@<TRIPOS>BOND
     1    19    20    2
     2    20    17    1
     3    17    18    2
     4    18     1    1
     5     1     2   ar
     6     2     3   ar
     7     3     4   ar
     8     4     5   ar
     9     5     6   ar
    10     5     7    1
    11     7     8    2
    12     7     9    1
    13     9    10    1
    14    10    11    1
    15    11    12    1
    16    12    13    1
    17    13    25    1
    18    25    26    1
    19    26    27   ar
    20    27    28   ar
    21    28    29   ar
    22    29    30    1
    23    29    31   ar
    24    31    32   ar
    25    13    14    1
    26    14    15    1
    27    10    16    1
    28    20    21   am
    29    21    22    1
    30     6     1   ar
    31    15    10    1
    32    16     4    1
    33    32    26   ar
    34    21    23    1
    35    22    24    1
@<TRIPOS>MOLECULE
*****
 32 35 0 0 0
SMALL
GASTEIGER

@<TRIPOS>ATOM
      1 C         138.7392  139.0099  165.8873 C.ar    1  UNL1        0.0004
      2 C         139.4685  137.8328  165.3108 C.ar    1  UNL1        0.0031
      3 C         139.6269  137.7029  163.8248 C.ar    1  UNL1        0.0370
      4 C         139.0559  138.7503  162.9154 C.ar    1  UNL1        0.1409
      5 C         138.3266  139.9275  163.4919 C.ar    1  UNL1        0.0687
      6 C         138.1683  140.0573  164.9779 C.ar    1  UNL1        0.0059
      7 C         137.7557  140.9748  162.5825 C.2     1  UNL1        0.1795
      8 O         137.0264  142.1520  163.1590 O.2     1  UNL1       -0.2911
      9 C         137.9140  140.8450  161.0965 C.3     1  UNL1        0.1092
     10 C         138.6433  139.6679  160.5200 C.3     1  UNL1        0.1430
     11 C         138.0724  140.7152  159.6106 C.3     1  UNL1        0.0578
     12 C         138.2307  140.5854  158.1246 C.3     1  UNL1        0.0760
     13 N         138.9600  139.4082  157.5481 N.3     1  UNL1       -0.2687
     14 C         139.5309  138.3609  158.4575 C.3     1  UNL1        0.0760
     15 C         139.3726  138.4907  159.9434 C.3     1  UNL1        0.0578
     16 O         139.2143  138.6205  161.4294 O.3     1  UNL1       -0.4820
     17 C         139.5486  139.9726  168.1607 C.2     1  UNL1        0.0598
     18 C         138.5809  139.1398  167.3732 C.2     1  UNL1        0.0047
     19 O         138.0430  139.9087  170.2771 O.2     1  UNL1       -0.2681
     20 C         139.3902  140.1025  169.6466 C.2     1  UNL1        0.2679
     21 N         140.5791  140.4261  170.5021 N.am    1  UNL1       -0.1934
     22 O         140.4208  140.5560  171.9881 O.3     1  UNL1       -0.2949
     23 H         141.4633  140.5533  170.0883 H       1  UNL1        0.1825
     24 H         139.4939  140.4018  172.2292 H       1  UNL1        0.2414
     25 C         139.1183  139.2784  156.0621 C.3     1  UNL1        0.0992
     26 C         140.3708  139.7656  155.3959 C.ar    1  UNL1       -0.0060
     27 C         141.4374  138.7887  154.9980 C.ar    1  UNL1       -0.0006
     28 C         142.6899  139.2760  154.3318 C.ar    1  UNL1        0.0294
     29 C         142.8759  140.7400  154.0635 C.ar    1  UNL1        0.1401
     30 F         144.1284  141.2272  153.3973 F       1  UNL1       -0.2042
     31 C         141.8094  141.7168  154.4614 C.ar    1  UNL1        0.0294
     32 C         140.5568  141.2297  155.1276 C.ar    1  UNL1       -0.0006
@<TRIPOS>BOND
     1    19    20    2
     2    20    17    1
     3    17    18    2
     4    18     1    1
     5     1     2   ar
     6     2     3   ar
     7     3     4   ar
     8     4     5   ar
     9     5     6   ar
    10     5     7    1
    11     7     8    2
    12     7     9    1
    13     9    10    1
    14    10    11    1
    15    11    12    1
    16    12    13    1
    17    13    25    1
    18    25    26    1
    19    26    27   ar
    20    27    28   ar
    21    28    29   ar
    22    29    30    1
    23    29    31   ar
    24    31    32   ar
    25    13    14    1
    26    14    15    1
    27    10    16    1
    28    20    21   am
    29    21    22    1
    30     6     1   ar
    31    15    10    1
    32    16     4    1
    33    32    26   ar
    34    21    23    1
    35    22    24    1
@<TRIPOS>MOLECULE
*****
 32 35 0 0 0
SMALL
GASTEIGER

@<TRIPOS>ATOM
      1 C         141.9009  139.5820  166.4129 C.ar    1  UNL1        0.0004
      2 C         140.6342  139.0301  165.8290 C.ar    1  UNL1        0.0031
      3 C         140.5116  138.8423  164.3459 C.ar    1  UNL1        0.0370
      4 C         141.6556  139.2063  163.4466 C.ar    1  UNL1        0.1409
      5 C         142.9223  139.7582  164.0305 C.ar    1  UNL1        0.0687
      6 C         143.0450  139.9460  165.5137 C.ar    1  UNL1        0.0059
      7 C         144.0664  140.1222  163.1313 C.2     1  UNL1        0.1795
      8 O         145.3331  140.6741  163.7152 O.2     1  UNL1       -0.2911
      9 C         143.9437  139.9344  161.6481 C.3     1  UNL1        0.1092
     10 C         142.6771  139.3826  161.0642 C.3     1  UNL1        0.1430
     11 C         143.8211  139.7466  160.1650 C.3     1  UNL1        0.0578
     12 C         143.6984  139.5588  158.6819 C.3     1  UNL1        0.0760
     13 N         142.4317  139.0069  158.0980 N.3     1  UNL1       -0.2687
     14 C         141.2877  138.6429  158.9972 C.3     1  UNL1        0.0760
     15 C         141.4104  138.8307  160.4803 C.3     1  UNL1        0.0578
     16 O         141.5330  139.0185  161.9635 O.3     1  UNL1       -0.4820
     17 C         140.7921  139.8069  168.7517 C.2     1  UNL1        0.0598
     18 C         142.0236  139.7698  167.8960 C.2     1  UNL1        0.0047
     19 O         139.7347  139.7355  171.1238 O.2     1  UNL1       -0.2681
     20 C         140.9148  139.9947  170.2348 C.2     1  UNL1        0.2679
     21 N         142.2175  140.4418  170.8289 N.am    1  UNL1       -0.1934
     22 O         142.3402  140.6296  172.3121 O.3     1  UNL1       -0.2949
     23 H         142.9920  140.6119  170.2455 H       1  UNL1        0.1825
     24 H         141.4927  140.4215  172.7356 H       1  UNL1        0.2414
     25 C         142.3091  138.8191  156.6148 C.3     1  UNL1        0.0992
     26 C         142.4167  137.4458  156.0213 C.ar    1  UNL1       -0.0060
     27 C         141.1798  136.7188  155.5837 C.ar    1  UNL1       -0.0006
     28 C         141.2875  135.3454  154.9901 C.ar    1  UNL1        0.0294
     29 C         142.6320  134.6990  154.8343 C.ar    1  UNL1        0.1401
     30 F         142.7397  133.3257  154.2408 F       1  UNL1       -0.2042
     31 C         143.8690  135.4260  155.2719 C.ar    1  UNL1        0.0294
     32 C         143.7613  136.7993  155.8655 C.ar    1  UNL1       -0.0006
@<TRIPOS>BOND
     1    19    20    2
     2    20    17    1
     3    17    18    2
     4    18     1    1
     5     1     2   ar
     6     2     3   ar
     7     3     4   ar
     8     4     5   ar
     9     5     6   ar
    10     5     7    1
    11     7     8    2
    12     7     9    1
    13     9    10    1
    14    10    11    1
    15    11    12    1
    16    12    13    1
    17    13    25    1
    18    25    26    1
    19    26    27   ar
    20    27    28   ar
    21    28    29   ar
    22    29    30    1
    23    29    31   ar
    24    31    32   ar
    25    13    14    1
    26    14    15    1
    27    10    16    1
    28    20    21   am
    29    21    22    1
    30     6     1   ar
    31    15    10    1
    32    16     4    1
    33    32    26   ar
    34    21    23    1
    35    22    24    1
@<TRIPOS>MOLECULE
*****
 32 35 0 0 0
SMALL
GASTEIGER

@<TRIPOS>ATOM
      1 C         141.5335  139.7304  166.4227 C.ar    1  UNL1        0.0004
      2 C         142.6726  138.8661  165.9692 C.ar    1  UNL1        0.0031
      3 C         142.8808  138.6061  164.5067 C.ar    1  UNL1        0.0370
      4 C         141.9499  139.2104  163.4975 C.ar    1  UNL1        0.1409
      5 C         140.8108  140.0747  163.9510 C.ar    1  UNL1        0.0687
      6 C         140.6027  140.3346  165.4136 C.ar    1  UNL1        0.0059
      7 C         139.8800  140.6789  162.9419 C.2     1  UNL1        0.1795
      8 O         138.7409  141.5432  163.3953 O.2     1  UNL1       -0.2911
      9 C         140.0881  140.4189  161.4793 C.3     1  UNL1        0.1092
     10 C         141.2272  139.5547  161.0258 C.3     1  UNL1        0.1430
     11 C         140.2963  140.1589  160.0167 C.3     1  UNL1        0.0578
     12 C         140.5045  139.8989  158.5542 C.3     1  UNL1        0.0760
     13 N         141.6436  139.0347  158.1008 N.3     1  UNL1       -0.2687
     14 C         142.5744  138.4304  159.1099 C.3     1  UNL1        0.0760
     15 C         142.3662  138.6904  160.5724 C.3     1  UNL1        0.0578
     16 O         142.1581  138.9504  162.0350 O.3     1  UNL1       -0.4820
     17 C         139.9348  140.0747  168.4415 C.2     1  UNL1        0.0598
     18 C         141.3253  139.9904  167.8852 C.2     1  UNL1        0.0047
     19 O         138.3716  140.7326  170.4096 O.2     1  UNL1       -0.2681
     20 C         139.7266  140.3347  169.9040 C.2     1  UNL1        0.2679
     21 N         140.8734  140.1968  170.8609 N.am    1  UNL1       -0.1934
     22 O         140.6652  140.4568  172.3235 O.3     1  UNL1       -0.2949
     23 H         141.7627  139.9356  170.5291 H       1  UNL1        0.1825
     24 H         139.7397  140.7015  172.4799 H       1  UNL1        0.2414
     25 C         141.8518  138.7747  156.6382 C.3     1  UNL1        0.0992
     26 C         142.2312  137.4021  156.1670 C.ar    1  UNL1       -0.0060
     27 C         143.6659  137.0812  155.8696 C.ar    1  UNL1       -0.0006
     28 C         144.0453  135.7085  155.3984 C.ar    1  UNL1        0.0294
     29 C         142.9900  134.6569  155.2245 C.ar    1  UNL1        0.1401
     30 F         143.3694  133.2843  154.7533 F       1  UNL1       -0.2042
     31 C         141.5552  134.9778  155.5219 C.ar    1  UNL1        0.0294
     32 C         141.1758  136.3504  155.9931 C.ar    1  UNL1       -0.0006
@<TRIPOS>BOND
     1    19    20    2
     2    20    17    1
     3    17    18    2
     4    18     1    1
     5     1     2   ar
     6     2     3   ar
     7     3     4   ar
     8     4     5   ar
     9     5     6   ar
    10     5     7    1
    11     7     8    2
    12     7     9    1
    13     9    10    1
    14    10    11    1
    15    11    12    1
    16    12    13    1
    17    13    25    1
    18    25    26    1
    19    26    27   ar
    20    27    28   ar
    21    28    29   ar
    22    29    30    1
    23    29    31   ar
    24    31    32   ar
    25    13    14    1
    26    14    15    1
    27    10    16    1
    28    20    21   am
    29    21    22    1
    30     6     1   ar
    31    15    10    1
    32    16     4    1
    33    32    26   ar
    34    21    23    1
    35    22    24    1
