@<TRIPOS>MOLECULE
*****
 27 30 0 0 0
SMALL
GASTEIGER

@<TRIPOS>ATOM
      1 C         139.1182  139.8789  168.0262 C.3     1  UNL1        0.1331
      2 C         139.3406  140.5737  166.7156 C.3     1  UNL1        0.0424
      3 C         138.5350  139.8606  165.6704 C.3     1  UNL1        0.0752
      4 C         137.8147  138.7251  166.3350 C.3     1  UNL1        0.0851
      5 N         138.1751  138.7363  167.7910 N.3     1  UNL1       -0.2902
      6 H         138.6270  137.8572  168.0426 H       1  UNL1        0.1237
      7 O         139.0321  139.9147  170.6226 O.2     1  UNL1       -0.2734
      8 C         139.7312  140.2598  169.3412 C.2     1  UNL1        0.2401
      9 N         141.0434  140.9857  169.3748 N.am    1  UNL1       -0.2730
     10 C         141.7745  141.4291  170.6072 C.3     1  UNL1        0.0993
     11 C         143.0378  142.1130  170.1759 C.3     1  UNL1        0.0898
     12 C         143.0877  142.0924  168.6769 C.3     1  UNL1        0.2835
     13 F         144.3875  142.8165  168.8669 F       1  UNL1       -0.2024
     14 F         143.4091  142.2231  167.2175 F       1  UNL1       -0.2024
     15 C         141.8550  141.3956  168.1817 C.3     1  UNL1        0.1601
     16 N         138.4624  140.2200  164.2158 N.3     1  UNL1       -0.2697
     17 C         138.2581  141.6481  163.8054 C.3     1  UNL1        0.0939
     18 C         138.1855  142.0074  162.3509 C.3     1  UNL1        0.1109
     19 N         138.3172  140.9385  161.3068 N.pl3   1  UNL1       -0.2753
     20 C         138.5215  139.5103  161.7172 C.3     1  UNL1        0.1109
     21 C         138.5941  139.1511  163.1717 C.3     1  UNL1        0.0939
     22 C         138.2446  141.2978  159.8523 C.ar    1  UNL1        0.2203
     23 N         137.8533  140.2604  158.8420 N.ar    1  UNL1       -0.2121
     24 C         137.7807  140.6197  157.3875 C.ar    1  UNL1        0.1034
     25 C         138.0994  142.0165  156.9432 C.ar    1  UNL1        0.0414
     26 C         138.4906  143.0540  157.9535 C.ar    1  UNL1        0.1034
     27 N         138.5632  142.6947  159.4080 N.ar    1  UNL1       -0.2121
@<TRIPOS>BOND
     1     7     8    2
     2     1     8    1
     3     1     2    1
     4     2     3    1
     5     3    16    1
     6    16    17    1
     7    17    18    1
     8    18    19    1
     9    19    22    1
    10    22    23   ar
    11    23    24   ar
    12    24    25   ar
    13    25    26   ar
    14    26    27   ar
    15    19    20    1
    16    20    21    1
    17     3     4    1
    18     4     5    1
    19     8     9   am
    20     9    10    1
    21    10    11    1
    22    11    12    1
    23    12    13    1
    24    12    14    1
    25    12    15    1
    26     5     1    1
    27    15     9    1
    28    21    16    1
    29    27    22   ar
    30     5     6    1
@<TRIPOS>MOLECULE
*****
 27 30 0 0 0
SMALL
GASTEIGER

@<TRIPOS>ATOM
      1 C         139.0765  139.8290  168.0576 C.3     1  UNL1        0.1331
      2 C         139.8078  139.9826  166.7569 C.3     1  UNL1        0.0424
      3 C         139.1419  139.0995  165.7437 C.3     1  UNL1        0.0752
      4 C         137.9991  138.4001  166.4181 C.3     1  UNL1        0.0851
      5 N         137.9587  138.8509  167.8482 N.3     1  UNL1       -0.2902
      6 H         138.0795  138.0493  168.4674 H       1  UNL1        0.1237
      7 O         138.4111  140.5437  170.4652 O.2     1  UNL1       -0.2734
      8 C         139.4054  140.5303  169.3421 C.2     1  UNL1        0.2401
      9 N         140.7285  141.2181  169.5037 N.am    1  UNL1       -0.2730
     10 C         141.1954  141.9563  170.7231 C.3     1  UNL1        0.0993
     11 C         142.5725  142.4830  170.4472 C.3     1  UNL1        0.0898
     12 C         142.9568  142.0704  169.0572 C.3     1  UNL1        0.2835
     13 F         144.2325  142.7976  169.3631 F       1  UNL1       -0.2024
     14 F         143.6076  141.8097  167.7311 F       1  UNL1       -0.2024
     15 C         141.8170  141.2886  168.4741 C.3     1  UNL1        0.1601
     16 N         139.5475  138.9432  164.3080 N.3     1  UNL1       -0.2697
     17 C         138.7115  138.1146  163.3784 C.3     1  UNL1        0.0939
     18 C         139.1172  137.9584  161.9428 C.3     1  UNL1        0.1109
     19 N         140.3589  138.6308  161.4368 N.pl3   1  UNL1       -0.2753
     20 C         141.1950  139.4594  162.3665 C.3     1  UNL1        0.1109
     21 C         140.7893  139.6156  163.8021 C.3     1  UNL1        0.0939
     22 C         140.7646  138.4745  160.0012 C.ar    1  UNL1        0.2203
     23 N         142.2134  138.3239  159.6433 N.ar    1  UNL1       -0.2121
     24 C         142.6191  138.1676  158.2076 C.ar    1  UNL1        0.1034
     25 C         141.5758  138.1620  157.1299 C.ar    1  UNL1        0.0414
     26 C         140.1269  138.3127  157.4878 C.ar    1  UNL1        0.1034
     27 N         139.7213  138.4689  158.9234 N.ar    1  UNL1       -0.2121
@<TRIPOS>BOND
     1     7     8    2
     2     1     8    1
     3     1     2    1
     4     2     3    1
     5     3    16    1
     6    16    17    1
     7    17    18    1
     8    18    19    1
     9    19    22    1
    10    22    23   ar
    11    23    24   ar
    12    24    25   ar
    13    25    26   ar
    14    26    27   ar
    15    19    20    1
    16    20    21    1
    17     3     4    1
    18     4     5    1
    19     8     9   am
    20     9    10    1
    21    10    11    1
    22    11    12    1
    23    12    13    1
    24    12    14    1
    25    12    15    1
    26     5     1    1
    27    15     9    1
    28    21    16    1
    29    27    22   ar
    30     5     6    1
@<TRIPOS>MOLECULE
*****
 27 30 0 0 0
SMALL
GASTEIGER

@<TRIPOS>ATOM
      1 C         138.4936  138.9406  165.4911 C.3     1  UNL1        0.1331
      2 C         138.2958  140.0448  164.4953 C.3     1  UNL1        0.0424
      3 C         138.5530  139.4866  163.1270 C.3     1  UNL1        0.0752
      4 C         138.9099  138.0374  163.2772 C.3     1  UNL1        0.0851
      5 N         138.8732  137.6999  164.7382 N.3     1  UNL1       -0.2902
      6 H         139.7921  137.3780  165.0423 H       1  UNL1        0.1237
      7 O         137.3447  138.1951  167.6989 O.2     1  UNL1       -0.2734
      8 C         138.3391  139.0567  166.9786 C.2     1  UNL1        0.2401
      9 N         139.1790  140.0343  167.7459 N.am    1  UNL1       -0.2730
     10 C         139.1361  140.2607  169.2281 C.3     1  UNL1        0.0993
     11 C         140.1398  141.3235  169.5639 C.3     1  UNL1        0.0898
     12 C         140.8033  141.7540  168.2893 C.3     1  UNL1        0.2835
     13 F         141.5692  142.6812  169.1857 F       1  UNL1       -0.2024
     14 F         141.6268  142.3782  167.2020 F       1  UNL1       -0.2024
     15 C         140.2094  140.9571  167.1657 C.3     1  UNL1        0.1601
     16 N         138.4683  140.2445  161.8353 N.3     1  UNL1       -0.2697
     17 C         138.3022  139.5046  160.5411 C.3     1  UNL1        0.0939
     18 C         138.2175  140.2625  159.2495 C.3     1  UNL1        0.1109
     19 N         138.2988  141.7603  159.2521 N.pl3   1  UNL1       -0.2753
     20 C         138.4648  142.5002  160.5462 C.3     1  UNL1        0.1109
     21 C         138.5495  141.7423  161.8379 C.3     1  UNL1        0.0939
     22 C         138.2140  142.5182  157.9603 C.ar    1  UNL1        0.2203
     23 N         137.0917  142.2459  157.0032 N.ar    1  UNL1       -0.2121
     24 C         137.0070  143.0038  155.7115 C.ar    1  UNL1        0.1034
     25 C         138.0446  144.0340  155.3770 C.ar    1  UNL1        0.0414
     26 C         139.1670  144.3064  156.3342 C.ar    1  UNL1        0.1034
     27 N         139.2517  143.5485  157.6258 N.ar    1  UNL1       -0.2121
@<TRIPOS>BOND
     1     7     8    2
     2     1     8    1
     3     1     2    1
     4     2     3    1
     5     3    16    1
     6    16    17    1
     7    17    18    1
     8    18    19    1
     9    19    22    1
    10    22    23   ar
    11    23    24   ar
    12    24    25   ar
    13    25    26   ar
    14    26    27   ar
    15    19    20    1
    16    20    21    1
    17     3     4    1
    18     4     5    1
    19     8     9   am
    20     9    10    1
    21    10    11    1
    22    11    12    1
    23    12    13    1
    24    12    14    1
    25    12    15    1
    26     5     1    1
    27    15     9    1
    28    21    16    1
    29    27    22   ar
    30     5     6    1
@<TRIPOS>MOLECULE
*****
 27 30 0 0 0
SMALL
GASTEIGER

@<TRIPOS>ATOM
      1 C         141.8535  139.5242  167.0025 C.3     1  UNL1        0.1331
      2 C         141.5832  139.6640  165.5337 C.3     1  UNL1        0.0424
      3 C         142.6636  138.9342  164.7920 C.3     1  UNL1        0.0752
      4 C         143.6016  138.3432  165.8025 C.3     1  UNL1        0.0851
      5 N         143.1009  138.7078  167.1686 N.3     1  UNL1       -0.2902
      6 H         143.8079  139.2526  167.6624 H       1  UNL1        0.1237
      7 O         139.6033  139.6495  168.2953 O.2     1  UNL1       -0.2734
      8 C         141.0222  140.0996  168.1107 C.2     1  UNL1        0.2401
      9 N         141.6099  141.1251  169.0342 N.am    1  UNL1       -0.2730
     10 C         140.9044  141.7864  170.1809 C.3     1  UNL1        0.0993
     11 C         141.8647  142.7393  170.8285 C.3     1  UNL1        0.0898
     12 C         143.1639  142.6670  170.0822 C.3     1  UNL1        0.2835
     13 F         143.6126  143.6945  171.0787 F       1  UNL1       -0.2024
     14 F         144.5568  142.8094  169.5441 F       1  UNL1       -0.2024
     15 C         143.0064  141.6693  168.9732 C.3     1  UNL1        0.1601
     16 N         142.7848  138.8160  163.3016 N.3     1  UNL1       -0.2697
     17 C         143.9932  139.3634  162.6016 C.3     1  UNL1        0.0939
     18 C         144.1143  139.2452  161.1112 C.3     1  UNL1        0.1109
     19 N         143.0270  138.5796  160.3208 N.pl3   1  UNL1       -0.2753
     20 C         141.8185  138.0322  161.0208 C.3     1  UNL1        0.1109
     21 C         141.6974  138.1504  162.5112 C.3     1  UNL1        0.0939
     22 C         143.1482  138.4614  158.8303 C.ar    1  UNL1        0.2203
     23 N         143.5505  139.6535  158.0137 N.ar    1  UNL1       -0.2121
     24 C         143.6717  139.5354  156.5232 C.ar    1  UNL1        0.1034
     25 C         143.3905  138.2250  155.8495 C.ar    1  UNL1        0.0414
     26 C         142.9881  137.0329  156.6662 C.ar    1  UNL1        0.1034
     27 N         142.8669  137.1511  158.1566 N.ar    1  UNL1       -0.2121
@<TRIPOS>BOND
     1     7     8    2
     2     1     8    1
     3     1     2    1
     4     2     3    1
     5     3    16    1
     6    16    17    1
     7    17    18    1
     8    18    19    1
     9    19    22    1
    10    22    23   ar
    11    23    24   ar
    12    24    25   ar
    13    25    26   ar
    14    26    27   ar
    15    19    20    1
    16    20    21    1
    17     3     4    1
    18     4     5    1
    19     8     9   am
    20     9    10    1
    21    10    11    1
    22    11    12    1
    23    12    13    1
    24    12    14    1
    25    12    15    1
    26     5     1    1
    27    15     9    1
    28    21    16    1
    29    27    22   ar
    30     5     6    1
@<TRIPOS>MOLECULE
*****
 27 30 0 0 0
SMALL
GASTEIGER

@<TRIPOS>ATOM
      1 C         142.8718  140.6484  166.7972 C.3     1  UNL1        0.1331
      2 C         142.9164  141.0272  165.3465 C.3     1  UNL1        0.0424
      3 C         143.2124  139.7891  164.5530 C.3     1  UNL1        0.0752
      4 C         143.3506  138.6451  165.5134 C.3     1  UNL1        0.0851
      5 N         143.1401  139.1761  166.9003 N.3     1  UNL1       -0.2902
      6 H         143.9754  139.0151  167.4631 H       1  UNL1        0.1237
      7 O         143.6122  142.6298  168.3058 O.2     1  UNL1       -0.2734
      8 C         142.6055  141.5785  167.9435 C.2     1  UNL1        0.2401
      9 N         141.3325  141.4573  168.7275 N.am    1  UNL1       -0.2730
     10 C         140.9300  142.3115  169.8930 C.3     1  UNL1        0.0993
     11 C         139.5873  141.8428  170.3694 C.3     1  UNL1        0.0898
     12 C         139.1597  140.6988  169.4985 C.3     1  UNL1        0.2835
     13 F         137.9383  140.6979  170.3693 F       1  UNL1       -0.2024
     14 F         138.4769  139.5547  168.8095 F       1  UNL1       -0.2024
     15 C         140.2383  140.4606  168.4837 C.3     1  UNL1        0.1601
     16 N         143.3466  139.7090  163.0611 N.3     1  UNL1       -0.2697
     17 C         143.1418  140.9358  162.2228 C.3     1  UNL1        0.0939
     18 C         143.2760  140.8557  160.7310 C.3     1  UNL1        0.1109
     19 N         143.6150  139.5488  160.0775 N.pl3   1  UNL1       -0.2753
     20 C         143.8198  138.3219  160.9159 C.3     1  UNL1        0.1109
     21 C         143.6856  138.4021  162.4077 C.3     1  UNL1        0.0939
     22 C         143.7492  139.4687  158.5856 C.ar    1  UNL1        0.2203
     23 N         143.0645  138.3693  157.8290 N.ar    1  UNL1       -0.2121
     24 C         143.1987  138.2892  156.3371 C.ar    1  UNL1        0.1034
     25 C         144.0175  139.3086  155.6019 C.ar    1  UNL1        0.0414
     26 C         144.7022  140.4080  156.3587 C.ar    1  UNL1        0.1034
     27 N         144.5680  140.4880  157.8505 N.ar    1  UNL1       -0.2121
@<TRIPOS>BOND
     1     7     8    2
     2     1     8    1
     3     1     2    1
     4     2     3    1
     5     3    16    1
     6    16    17    1
     7    17    18    1
     8    18    19    1
     9    19    22    1
    10    22    23   ar
    11    23    24   ar
    12    24    25   ar
    13    25    26   ar
    14    26    27   ar
    15    19    20    1
    16    20    21    1
    17     3     4    1
    18     4     5    1
    19     8     9   am
    20     9    10    1
    21    10    11    1
    22    11    12    1
    23    12    13    1
    24    12    14    1
    25    12    15    1
    26     5     1    1
    27    15     9    1
    28    21    16    1
    29    27    22   ar
    30     5     6    1
@<TRIPOS>MOLECULE
*****
 27 30 0 0 0
SMALL
GASTEIGER

@<TRIPOS>ATOM
      1 C         142.6792  141.7317  166.6318 C.3     1  UNL1        0.1331
      2 C         142.2928  142.7523  165.6028 C.3     1  UNL1        0.0424
      3 C         142.5235  142.1539  164.2469 C.3     1  UNL1        0.0752
      4 C         143.0525  140.7633  164.4378 C.3     1  UNL1        0.0851
      5 N         143.1488  140.5023  165.9118 N.3     1  UNL1       -0.2902
      6 H         144.1161  140.3010  166.1653 H       1  UNL1        0.1237
      7 O         143.7197  142.6082  168.8452 O.2     1  UNL1       -0.2734
      8 C         142.6085  141.9091  168.1196 C.2     1  UNL1        0.2401
      9 N         141.4266  141.3874  168.8818 N.am    1  UNL1       -0.2730
     10 C         141.2179  141.4902  170.3637 C.3     1  UNL1        0.0993
     11 C         139.9083  140.8377  170.6937 C.3     1  UNL1        0.0898
     12 C         139.3075  140.3316  169.4158 C.3     1  UNL1        0.2835
     13 F         138.1949  139.8657  170.3074 F       1  UNL1       -0.2024
     14 F         138.4742  139.7282  168.3242 F       1  UNL1       -0.2024
     15 C         140.2460  140.6714  168.2960 C.3     1  UNL1        0.1601
     16 N         142.2697  142.8277  162.9309 N.3     1  UNL1       -0.2697
     17 C         141.1561  143.8240  162.8009 C.3     1  UNL1        0.0939
     18 C         140.9023  144.4978  161.4850 C.3     1  UNL1        0.1109
     19 N         141.7623  144.1752  160.2991 N.pl3   1  UNL1       -0.2753
     20 C         142.8760  143.1789  160.4291 C.3     1  UNL1        0.1109
     21 C         143.1297  142.5051  161.7450 C.3     1  UNL1        0.0939
     22 C         141.5086  144.8490  158.9831 C.ar    1  UNL1        0.2203
     23 N         140.1953  145.5277  158.7290 N.ar    1  UNL1       -0.2121
     24 C         139.9416  146.2015  157.4130 C.ar    1  UNL1        0.1034
     25 C         141.0011  146.1966  156.3513 C.ar    1  UNL1        0.0414
     26 C         142.3144  145.5178  156.6055 C.ar    1  UNL1        0.1034
     27 N         142.5681  144.8440  157.9214 N.ar    1  UNL1       -0.2121
@<TRIPOS>BOND
     1     7     8    2
     2     1     8    1
     3     1     2    1
     4     2     3    1
     5     3    16    1
     6    16    17    1
     7    17    18    1
     8    18    19    1
     9    19    22    1
    10    22    23   ar
    11    23    24   ar
    12    24    25   ar
    13    25    26   ar
    14    26    27   ar
    15    19    20    1
    16    20    21    1
    17     3     4    1
    18     4     5    1
    19     8     9   am
    20     9    10    1
    21    10    11    1
    22    11    12    1
    23    12    13    1
    24    12    14    1
    25    12    15    1
    26     5     1    1
    27    15     9    1
    28    21    16    1
    29    27    22   ar
    30     5     6    1
@<TRIPOS>MOLECULE
*****
 27 30 0 0 0
SMALL
GASTEIGER

@<TRIPOS>ATOM
      1 C         138.6067  139.3710  164.8573 C.3     1  UNL1        0.1331
      2 C         139.6523  138.7467  163.9815 C.3     1  UNL1        0.0424
      3 C         139.4145  139.2088  162.5745 C.3     1  UNL1        0.0752
      4 C         138.2220  140.1187  162.5806 C.3     1  UNL1        0.0851
      5 N         137.7227  140.2190  163.9915 N.3     1  UNL1       -0.2902
      6 H         136.7614  139.8820  164.0433 H       1  UNL1        0.1237
      7 O         137.5986  138.0840  166.8766 O.2     1  UNL1       -0.2734
      8 C         138.4692  139.1808  166.3389 C.2     1  UNL1        0.2401
      9 N         139.2023  140.0873  167.2827 N.am    1  UNL1       -0.2730
     10 C         139.1624  140.0190  168.7806 C.3     1  UNL1        0.0993
     11 C         140.0394  141.1107  169.3179 C.3     1  UNL1        0.0898
     12 C         140.6215  141.8538  168.1521 C.3     1  UNL1        0.2835
     13 F         141.2898  142.6777  169.2126 F       1  UNL1       -0.2024
     14 F         141.3432  142.7690  167.2079 F       1  UNL1       -0.2024
     15 C         140.1041  141.2212  166.8943 C.3     1  UNL1        0.1601
     16 N         140.2267  138.8279  161.3722 N.3     1  UNL1       -0.2697
     17 C         141.6662  138.4378  161.5324 C.3     1  UNL1        0.0939
     18 C         142.4783  138.0569  160.3302 C.3     1  UNL1        0.1109
     19 N         141.8509  138.0661  158.9678 N.pl3   1  UNL1       -0.2753
     20 C         140.4114  138.4561  158.8075 C.3     1  UNL1        0.1109
     21 C         139.5993  138.8370  160.0097 C.3     1  UNL1        0.0939
     22 C         142.6631  137.6852  157.7655 C.ar    1  UNL1        0.2203
     23 N         143.3445  138.7466  156.9537 N.ar    1  UNL1       -0.2121
     24 C         144.1566  138.3657  155.7515 C.ar    1  UNL1        0.1034
     25 C         144.2874  136.9233  155.3611 C.ar    1  UNL1        0.0414
     26 C         143.6059  135.8618  156.1729 C.ar    1  UNL1        0.1034
     27 N         142.7938  136.2428  157.3751 N.ar    1  UNL1       -0.2121
@<TRIPOS>BOND
     1     7     8    2
     2     1     8    1
     3     1     2    1
     4     2     3    1
     5     3    16    1
     6    16    17    1
     7    17    18    1
     8    18    19    1
     9    19    22    1
    10    22    23   ar
    11    23    24   ar
    12    24    25   ar
    13    25    26   ar
    14    26    27   ar
    15    19    20    1
    16    20    21    1
    17     3     4    1
    18     4     5    1
    19     8     9   am
    20     9    10    1
    21    10    11    1
    22    11    12    1
    23    12    13    1
    24    12    14    1
    25    12    15    1
    26     5     1    1
    27    15     9    1
    28    21    16    1
    29    27    22   ar
    30     5     6    1
@<TRIPOS>MOLECULE
*****
 27 30 0 0 0
SMALL
GASTEIGER

@<TRIPOS>ATOM
      1 C         139.3334  140.1594  167.0146 C.3     1  UNL1        0.1331
      2 C         139.6087  141.2285  165.9992 C.3     1  UNL1        0.0424
      3 C         139.1984  140.7069  164.6540 C.3     1  UNL1        0.0752
      4 C         138.6695  139.3153  164.8381 C.3     1  UNL1        0.0851
      5 N         138.7529  138.9769  166.2970 N.3     1  UNL1       -0.2902
      6 H         139.3528  138.1628  166.4298 H       1  UNL1        0.1237
      7 O         138.5817  139.7306  169.4644 O.2     1  UNL1       -0.2734
      8 C         139.5929  140.2558  168.4889 C.2     1  UNL1        0.2401
      9 N         140.8637  140.8773  168.9876 N.am    1  UNL1       -0.2730
     10 C         141.2596  141.0424  170.4250 C.3     1  UNL1        0.0993
     11 C         142.6022  141.7099  170.4623 C.3     1  UNL1        0.0898
     12 C         143.0363  141.9575  169.0479 C.3     1  UNL1        0.2835
     13 F         144.2548  142.5498  169.6918 F       1  UNL1       -0.2024
     14 F         143.7250  142.3289  167.7681 F       1  UNL1       -0.2024
     15 C         141.9617  141.4429  168.1366 C.3     1  UNL1        0.1601
     16 N         139.2993  141.4469  163.3531 N.3     1  UNL1       -0.2697
     17 C         138.0628  141.9939  162.7035 C.3     1  UNL1        0.0939
     18 C         138.1638  142.7338  161.4027 C.3     1  UNL1        0.1109
     19 N         139.5011  142.9267  160.7513 N.pl3   1  UNL1       -0.2753
     20 C         140.7376  142.3797  161.4009 C.3     1  UNL1        0.1109
     21 C         140.6367  141.6398  162.7017 C.3     1  UNL1        0.0939
     22 C         139.6020  143.6667  159.4504 C.ar    1  UNL1        0.2203
     23 N         139.2875  142.9654  158.1623 N.ar    1  UNL1       -0.2121
     24 C         139.3884  143.7054  156.8614 C.ar    1  UNL1        0.1034
     25 C         139.8038  145.1466  156.8487 C.ar    1  UNL1        0.0414
     26 C         140.1183  145.8479  158.1368 C.ar    1  UNL1        0.1034
     27 N         140.0174  145.1080  159.4377 N.ar    1  UNL1       -0.2121
@<TRIPOS>BOND
     1     7     8    2
     2     1     8    1
     3     1     2    1
     4     2     3    1
     5     3    16    1
     6    16    17    1
     7    17    18    1
     8    18    19    1
     9    19    22    1
    10    22    23   ar
    11    23    24   ar
    12    24    25   ar
    13    25    26   ar
    14    26    27   ar
    15    19    20    1
    16    20    21    1
    17     3     4    1
    18     4     5    1
    19     8     9   am
    20     9    10    1
    21    10    11    1
    22    11    12    1
    23    12    13    1
    24    12    14    1
    25    12    15    1
    26     5     1    1
    27    15     9    1
    28    21    16    1
    29    27    22   ar
    30     5     6    1
@<TRIPOS>MOLECULE
*****
 27 30 0 0 0
SMALL
GASTEIGER

@<TRIPOS>ATOM
      1 C         142.8577  135.6256  155.9603 C.3     1  UNL1        0.1331
      2 C         142.6172  136.4615  157.1823 C.3     1  UNL1        0.0424
      3 C         143.2383  137.8074  156.9528 C.3     1  UNL1        0.0752
      4 C         143.8627  137.8033  155.5890 C.3     1  UNL1        0.0851
      5 N         143.6275  136.4549  154.9755 N.3     1  UNL1       -0.2902
      6 H         144.5208  136.0075  154.7699 H       1  UNL1        0.1237
      7 O         141.2250  133.9154  154.8835 O.2     1  UNL1       -0.2734
      8 C         142.4074  134.2090  155.7584 C.2     1  UNL1        0.2401
      9 N         143.1396  133.0862  156.4315 N.am    1  UNL1       -0.2730
     10 C         142.8074  131.6274  156.3242 C.3     1  UNL1        0.0993
     11 C         143.7951  130.8646  157.1564 C.3     1  UNL1        0.0898
     12 C         144.7378  131.8519  157.7781 C.3     1  UNL1        0.2835
     13 F         145.3674  130.6320  158.3825 F       1  UNL1       -0.2024
     14 F         145.8121  132.5844  158.5261 F       1  UNL1       -0.2024
     15 C         144.3326  133.2250  157.3300 C.3     1  UNL1        0.1601
     16 N         143.2356  138.9559  157.9178 N.3     1  UNL1       -0.2697
     17 C         143.6568  140.3209  157.4604 C.3     1  UNL1        0.0939
     18 C         143.6540  141.4692  158.4253 C.3     1  UNL1        0.1109
     19 N         143.2300  141.2526  159.8478 N.pl3   1  UNL1       -0.2753
     20 C         142.8088  139.8876  160.3052 C.3     1  UNL1        0.1109
     21 C         142.8116  138.7393  159.3403 C.3     1  UNL1        0.0939
     22 C         143.2273  142.4011  160.8127 C.ar    1  UNL1        0.2203
     23 N         141.9765  143.2023  161.0215 N.ar    1  UNL1       -0.2121
     24 C         141.9738  144.3507  161.9865 C.ar    1  UNL1        0.1034
     25 C         143.2218  144.6979  162.7427 C.ar    1  UNL1        0.0414
     26 C         144.4726  143.8966  162.5339 C.ar    1  UNL1        0.1034
     27 N         144.4753  142.7482  161.5689 N.ar    1  UNL1       -0.2121
@<TRIPOS>BOND
     1     7     8    2
     2     1     8    1
     3     1     2    1
     4     2     3    1
     5     3    16    1
     6    16    17    1
     7    17    18    1
     8    18    19    1
     9    19    22    1
    10    22    23   ar
    11    23    24   ar
    12    24    25   ar
    13    25    26   ar
    14    26    27   ar
    15    19    20    1
    16    20    21    1
    17     3     4    1
    18     4     5    1
    19     8     9   am
    20     9    10    1
    21    10    11    1
    22    11    12    1
    23    12    13    1
    24    12    14    1
    25    12    15    1
    26     5     1    1
    27    15     9    1
    28    21    16    1
    29    27    22   ar
    30     5     6    1
