@<TRIPOS>MOLECULE
*****
 38 42 0 0 0
SMALL
GASTEIGER

@<TRIPOS>ATOM
      1 N         137.8616  142.9263  163.2792 N.3     1  UNL1       -0.2689
      2 C         137.7845  141.7623  164.2221 C.3     1  UNL1        0.0737
      3 C         137.8121  140.3610  163.6875 C.3     1  UNL1        0.0356
      4 C         137.9167  140.1239  162.2101 C.3     1  UNL1        0.0843
      5 C         137.9938  141.2880  161.2673 C.3     1  UNL1        0.1407
      6 O         138.0984  141.0508  159.7898 O.3     1  UNL1       -0.3817
      7 C         137.9662  142.6892  161.8018 C.3     1  UNL1        0.1031
      8 H         138.1036  140.0966  159.6151 H       1  UNL1        0.2105
      9 N         137.9443  138.7226  161.6755 N.3     1  UNL1       -0.2915
     10 H         137.3427  138.7098  160.8519 H       1  UNL1        0.1236
     11 C         139.2473  138.1003  161.2697 C.3     1  UNL1        0.1152
     12 C         140.4622  138.2739  162.1321 C.ar    1  UNL1        0.0765
     13 C         140.6414  137.4242  163.3551 C.ar    1  UNL1        0.0193
     14 C         141.8564  137.5978  164.2176 C.ar    1  UNL1        0.0411
     15 C         142.8921  138.6212  163.8570 C.ar    1  UNL1        0.1708
     16 C         142.7129  139.4709  162.6339 C.ar    1  UNL1        0.1682
     17 N         141.4980  139.2973  161.7715 N.ar    1  UNL1       -0.2304
     18 N         143.7486  140.4942  162.2733 N.am    1  UNL1       -0.2639
     19 C         144.9635  140.6679  163.1358 C.2     1  UNL1        0.2718
     20 O         145.9993  141.6912  162.7752 O.2     1  UNL1       -0.2707
     21 C         145.1427  139.8182  164.3588 C.3     1  UNL1        0.2898
     22 O         144.1070  138.7948  164.7194 O.3     1  UNL1       -0.4628
     23 H         143.6310  141.0519  161.4705 H       1  UNL1        0.1565
     24 C         137.8340  144.3276  163.8138 C.3     1  UNL1        0.0970
     25 C         138.9606  144.8262  164.6694 C.3     1  UNL1        0.1264
     26 C         140.9745  141.9788  167.5131 C.ar    1  UNL1        0.1403
     27 C         142.3778  141.5205  167.2472 C.ar    1  UNL1        0.0385
     28 C         143.1098  142.0113  166.0334 C.ar    1  UNL1        0.0237
     29 C         142.4385  142.9604  165.0855 C.ar    1  UNL1        0.0975
     30 N         143.1705  143.4512  163.8717 N.ar    1  UNL1       -0.2374
     31 C         142.4993  144.4004  162.9238 C.ar    1  UNL1        0.1594
     32 C         141.0959  144.8587  163.1897 C.ar    1  UNL1        0.2803
     33 O         140.4247  145.8078  162.2418 O.2     1  UNL1       -0.2653
     34 N         140.3639  144.3679  164.4035 N.ar    1  UNL1       -0.2913
     35 C         141.0353  143.4187  165.3514 C.ar    1  UNL1        0.0832
     36 C         140.3033  142.9279  166.5652 C.ar    1  UNL1        0.0557
     37 C         139.4537  140.2138  168.6628 C.3     1  UNL1        0.2525
     38 O         140.2425  141.4880  168.7269 O.3     1  UNL1       -0.4714
@<TRIPOS>BOND
     1    37    38    1
     2    38    26    1
     3    26    27   ar
     4    27    28   ar
     5    28    29   ar
     6    29    30   ar
     7    30    31   ar
     8    31    32   ar
     9    32    33    2
    10    32    34   ar
    11    34    25    1
    12    25    24    1
    13    24     1    1
    14     1     2    1
    15     2     3    1
    16     3     4    1
    17     4     9    1
    18     9    11    1
    19    11    12    1
    20    12    13   ar
    21    13    14   ar
    22    14    15   ar
    23    15    16   ar
    24    16    17   ar
    25    16    18    1
    26    18    19   am
    27    19    20    2
    28    19    21    1
    29    21    22    1
    30     4     5    1
    31     5     6    1
    32     5     7    1
    33    34    35   ar
    34    35    36   ar
    35    36    26   ar
    36    35    29   ar
    37     7     1    1
    38    17    12   ar
    39    22    15    1
    40     9    10    1
    41    18    23    1
    42     6     8    1
@<TRIPOS>MOLECULE
*****
 38 42 0 0 0
SMALL
GASTEIGER

@<TRIPOS>ATOM
      1 N         141.7821  138.2696  163.6617 N.3     1  UNL1       -0.2689
      2 C         142.7653  138.4932  164.7723 C.3     1  UNL1        0.0737
      3 C         144.0110  139.2903  164.5220 C.3     1  UNL1        0.0356
      4 C         144.2735  139.8639  163.1612 C.3     1  UNL1        0.0843
      5 C         143.2903  139.6404  162.0506 C.3     1  UNL1        0.1407
      6 O         143.5529  140.2141  160.6897 O.3     1  UNL1       -0.3817
      7 C         142.0446  138.8433  162.3009 C.3     1  UNL1        0.1031
      8 H         144.3941  140.6970  160.6992 H       1  UNL1        0.2105
      9 N         145.5193  140.6611  162.9108 N.3     1  UNL1       -0.2915
     10 H         145.6837  140.6422  161.9043 H       1  UNL1        0.1236
     11 C         145.5874  142.0987  163.3337 C.3     1  UNL1        0.1152
     12 C         144.3855  142.9830  163.1814 C.ar    1  UNL1        0.0765
     13 C         143.7619  143.6156  164.3901 C.ar    1  UNL1        0.0193
     14 C         142.5599  144.5000  164.2378 C.ar    1  UNL1        0.0411
     15 C         141.9816  144.7518  162.8769 C.ar    1  UNL1        0.1708
     16 C         142.6052  144.1191  161.6682 C.ar    1  UNL1        0.1682
     17 N         143.8072  143.2347  161.8205 N.ar    1  UNL1       -0.2304
     18 N         142.0269  144.3708  160.3072 N.am    1  UNL1       -0.2639
     19 C         140.8249  145.2552  160.1550 C.2     1  UNL1        0.2718
     20 O         140.2466  145.5070  158.7940 O.2     1  UNL1       -0.2707
     21 C         140.2013  145.8879  161.3636 C.3     1  UNL1        0.2898
     22 O         140.7796  145.6361  162.7246 O.3     1  UNL1       -0.4628
     23 H         142.4362  143.9556  159.5139 H       1  UNL1        0.1565
     24 C         140.5363  137.4725  163.9121 C.3     1  UNL1        0.0970
     25 C         139.3099  138.1471  164.4515 C.3     1  UNL1        0.1264
     26 C         140.1267  142.0230  166.5869 C.ar    1  UNL1        0.1403
     27 C         139.6611  143.3192  165.9928 C.ar    1  UNL1        0.0385
     28 C         138.9232  143.3234  164.6869 C.ar    1  UNL1        0.0237
     29 C         138.6509  142.0315  163.9751 C.ar    1  UNL1        0.0975
     30 N         137.9130  142.0357  162.6691 N.ar    1  UNL1       -0.2374
     31 C         137.6407  140.7438  161.9573 C.ar    1  UNL1        0.1594
     32 C         138.1064  139.4475  162.5514 C.ar    1  UNL1        0.2803
     33 O         137.8341  138.1556  161.8396 O.2     1  UNL1       -0.2653
     34 N         138.8443  139.4433  163.8574 N.ar    1  UNL1       -0.2913
     35 C         139.1166  140.7353  164.5692 C.ar    1  UNL1        0.0832
     36 C         139.8545  140.7310  165.8751 C.ar    1  UNL1        0.0557
     37 C         140.6043  143.0947  168.9049 C.3     1  UNL1        0.2525
     38 O         140.8647  142.0187  167.8929 O.3     1  UNL1       -0.4714
@<TRIPOS>BOND
     1    37    38    1
     2    38    26    1
     3    26    27   ar
     4    27    28   ar
     5    28    29   ar
     6    29    30   ar
     7    30    31   ar
     8    31    32   ar
     9    32    33    2
    10    32    34   ar
    11    34    25    1
    12    25    24    1
    13    24     1    1
    14     1     2    1
    15     2     3    1
    16     3     4    1
    17     4     9    1
    18     9    11    1
    19    11    12    1
    20    12    13   ar
    21    13    14   ar
    22    14    15   ar
    23    15    16   ar
    24    16    17   ar
    25    16    18    1
    26    18    19   am
    27    19    20    2
    28    19    21    1
    29    21    22    1
    30     4     5    1
    31     5     6    1
    32     5     7    1
    33    34    35   ar
    34    35    36   ar
    35    36    26   ar
    36    35    29   ar
    37     7     1    1
    38    17    12   ar
    39    22    15    1
    40     9    10    1
    41    18    23    1
    42     6     8    1
@<TRIPOS>MOLECULE
*****
 38 42 0 0 0
SMALL
GASTEIGER

@<TRIPOS>ATOM
      1 N         138.9749  143.1757  162.7720 N.3     1  UNL1       -0.2689
      2 C         139.4976  143.3910  164.1614 C.3     1  UNL1        0.0737
      3 C         140.7694  144.1574  164.3738 C.3     1  UNL1        0.0356
      4 C         141.5184  144.7085  163.1969 C.3     1  UNL1        0.0843
      5 C         140.9956  144.4932  161.8075 C.3     1  UNL1        0.1407
      6 O         141.7447  145.0443  160.6305 O.3     1  UNL1       -0.3817
      7 C         139.7239  143.7268  161.5951 C.3     1  UNL1        0.1031
      8 H         142.5379  145.5087  160.9407 H       1  UNL1        0.2105
      9 N         142.7903  145.4749  163.4093 N.3     1  UNL1       -0.2915
     10 H         142.7554  145.8461  164.3587 H       1  UNL1        0.1236
     11 C         144.1145  144.7860  163.2620 C.3     1  UNL1        0.1152
     12 C         144.1708  143.2960  163.0989 C.ar    1  UNL1        0.0765
     13 C         144.5302  142.4266  164.2672 C.ar    1  UNL1        0.0193
     14 C         144.5865  140.9366  164.1040 C.ar    1  UNL1        0.0411
     15 C         144.2833  140.3159  162.7725 C.ar    1  UNL1        0.1708
     16 C         143.9238  141.1854  161.6042 C.ar    1  UNL1        0.1682
     17 N         143.8676  142.6754  161.7674 N.ar    1  UNL1       -0.2304
     18 N         143.6206  140.5647  160.2727 N.am    1  UNL1       -0.2639
     19 C         143.6769  139.0746  160.1095 C.2     1  UNL1        0.2718
     20 O         143.3737  138.4540  158.7780 O.2     1  UNL1       -0.2707
     21 C         144.0363  138.2053  161.2778 C.3     1  UNL1        0.2898
     22 O         144.3395  138.8259  162.6093 O.3     1  UNL1       -0.4628
     23 H         143.3847  141.1353  159.5059 H       1  UNL1        0.1565
     24 C         137.7030  142.4093  162.5596 C.3     1  UNL1        0.0970
     25 C         137.5496  141.0350  163.1408 C.3     1  UNL1        0.1264
     26 C         140.7750  139.4706  165.8610 C.ar    1  UNL1        0.1403
     27 C         141.6693  138.3577  165.4012 C.ar    1  UNL1        0.0385
     28 C         141.4886  137.7662  164.0346 C.ar    1  UNL1        0.0237
     29 C         140.4135  138.2877  163.1279 C.ar    1  UNL1        0.0975
     30 N         140.2327  137.6962  161.7613 N.ar    1  UNL1       -0.2374
     31 C         139.1576  138.2176  160.8546 C.ar    1  UNL1        0.1594
     32 C         138.2632  139.3306  161.3144 C.ar    1  UNL1        0.2803
     33 O         137.1881  139.8520  160.4077 O.2     1  UNL1       -0.2653
     34 N         138.4439  139.9221  162.6810 N.ar    1  UNL1       -0.2913
     35 C         139.5191  139.4006  163.5877 C.ar    1  UNL1        0.0832
     36 C         139.6999  139.9920  164.9543 C.ar    1  UNL1        0.0557
     37 C         139.7852  140.1689  168.1594 C.3     1  UNL1        0.2525
     38 O         140.9557  140.0621  167.2276 O.3     1  UNL1       -0.4714
@<TRIPOS>BOND
     1    37    38    1
     2    38    26    1
     3    26    27   ar
     4    27    28   ar
     5    28    29   ar
     6    29    30   ar
     7    30    31   ar
     8    31    32   ar
     9    32    33    2
    10    32    34   ar
    11    34    25    1
    12    25    24    1
    13    24     1    1
    14     1     2    1
    15     2     3    1
    16     3     4    1
    17     4     9    1
    18     9    11    1
    19    11    12    1
    20    12    13   ar
    21    13    14   ar
    22    14    15   ar
    23    15    16   ar
    24    16    17   ar
    25    16    18    1
    26    18    19   am
    27    19    20    2
    28    19    21    1
    29    21    22    1
    30     4     5    1
    31     5     6    1
    32     5     7    1
    33    34    35   ar
    34    35    36   ar
    35    36    26   ar
    36    35    29   ar
    37     7     1    1
    38    17    12   ar
    39    22    15    1
    40     9    10    1
    41    18    23    1
    42     6     8    1
@<TRIPOS>MOLECULE
*****
 38 42 0 0 0
SMALL
GASTEIGER

@<TRIPOS>ATOM
      1 N         143.6592  142.1275  163.4284 N.3     1  UNL1       -0.2689
      2 C         143.0933  142.8506  164.6146 C.3     1  UNL1        0.0737
      3 C         142.3027  144.1101  164.4180 C.3     1  UNL1        0.0356
      4 C         142.0781  144.6464  163.0354 C.3     1  UNL1        0.0843
      5 C         142.6439  143.9233  161.8492 C.3     1  UNL1        0.1407
      6 O         142.4192  144.4598  160.4665 O.3     1  UNL1       -0.3817
      7 C         143.4345  142.6638  162.0458 C.3     1  UNL1        0.1031
      8 H         141.8933  145.2733  160.5168 H       1  UNL1        0.2105
      9 N         141.2875  145.9060  162.8388 N.3     1  UNL1       -0.2915
     10 H         141.7512  146.4321  162.0981 H       1  UNL1        0.1236
     11 C         139.8350  145.8302  162.4719 C.3     1  UNL1        0.1152
     12 C         139.1809  144.4954  162.2709 C.ar    1  UNL1        0.0765
     13 C         138.4234  143.8545  163.3958 C.ar    1  UNL1        0.0193
     14 C         137.7692  142.5197  163.1948 C.ar    1  UNL1        0.0411
     15 C         137.8725  141.8258  161.8690 C.ar    1  UNL1        0.1708
     16 C         138.6301  142.4668  160.7441 C.ar    1  UNL1        0.1682
     17 N         139.2842  143.8016  160.9451 N.ar    1  UNL1       -0.2304
     18 N         138.7334  141.7730  159.4182 N.am    1  UNL1       -0.2639
     19 C         138.0792  140.4381  159.2173 C.2     1  UNL1        0.2718
     20 O         138.1825  139.7443  157.8914 O.2     1  UNL1       -0.2707
     21 C         137.3217  139.7972  160.3421 C.3     1  UNL1        0.2898
     22 O         137.2184  140.4911  161.6680 O.3     1  UNL1       -0.4628
     23 H         139.2306  142.1937  158.6799 H       1  UNL1        0.1565
     24 C         144.4498  140.8679  163.6250 C.3     1  UNL1        0.0970
     25 C         143.7998  139.6622  164.2362 C.3     1  UNL1        0.1264
     26 C         139.8996  140.2431  166.4043 C.ar    1  UNL1        0.1403
     27 C         138.6291  139.6994  165.8211 C.ar    1  UNL1        0.0385
     28 C         138.6586  138.9620  164.5152 C.ar    1  UNL1        0.0237
     29 C         139.9586  138.7684  163.7925 C.ar    1  UNL1        0.0975
     30 N         139.9882  138.0310  162.4866 N.ar    1  UNL1       -0.2374
     31 C         141.2882  137.8373  161.7639 C.ar    1  UNL1        0.1594
     32 C         142.5588  138.3811  162.3471 C.ar    1  UNL1        0.2803
     33 O         143.8588  138.1874  161.6244 O.2     1  UNL1       -0.2653
     34 N         142.5293  139.1184  163.6530 N.ar    1  UNL1       -0.2913
     35 C         141.2291  139.3121  164.3757 C.ar    1  UNL1        0.0832
     36 C         141.1996  140.0495  165.6816 C.ar    1  UNL1        0.0557
     37 C         139.4112  140.2819  168.9558 C.3     1  UNL1        0.2525
     38 O         139.8700  140.9805  167.7103 O.3     1  UNL1       -0.4714
@<TRIPOS>BOND
     1    37    38    1
     2    38    26    1
     3    26    27   ar
     4    27    28   ar
     5    28    29   ar
     6    29    30   ar
     7    30    31   ar
     8    31    32   ar
     9    32    33    2
    10    32    34   ar
    11    34    25    1
    12    25    24    1
    13    24     1    1
    14     1     2    1
    15     2     3    1
    16     3     4    1
    17     4     9    1
    18     9    11    1
    19    11    12    1
    20    12    13   ar
    21    13    14   ar
    22    14    15   ar
    23    15    16   ar
    24    16    17   ar
    25    16    18    1
    26    18    19   am
    27    19    20    2
    28    19    21    1
    29    21    22    1
    30     4     5    1
    31     5     6    1
    32     5     7    1
    33    34    35   ar
    34    35    36   ar
    35    36    26   ar
    36    35    29   ar
    37     7     1    1
    38    17    12   ar
    39    22    15    1
    40     9    10    1
    41    18    23    1
    42     6     8    1
@<TRIPOS>MOLECULE
*****
 38 42 0 0 0
SMALL
GASTEIGER

@<TRIPOS>ATOM
      1 N         138.9668  139.4694  161.3438 N.3     1  UNL1       -0.2689
      2 C         139.8646  139.7632  160.1786 C.3     1  UNL1        0.0737
      3 C         141.1694  139.0374  160.0355 C.3     1  UNL1        0.0356
      4 C         141.5765  138.0179  161.0575 C.3     1  UNL1        0.0843
      5 C         140.6787  137.7241  162.2228 C.3     1  UNL1        0.1407
      6 O         141.0859  136.7044  163.2449 O.3     1  UNL1       -0.3817
      7 C         139.3739  138.4499  162.3659 C.3     1  UNL1        0.1031
      8 H         141.9490  136.3326  163.0046 H       1  UNL1        0.2105
      9 N         142.8814  137.2920  160.9145 N.3     1  UNL1       -0.2915
     10 H         142.9879  137.0701  159.9246 H       1  UNL1        0.1236
     11 C         144.1571  137.9496  161.3505 C.3     1  UNL1        0.1152
     12 C         144.1185  139.0889  162.3254 C.ar    1  UNL1        0.0765
     13 C         144.0192  138.8140  163.7966 C.ar    1  UNL1        0.0193
     14 C         143.9806  139.9533  164.7716 C.ar    1  UNL1        0.0411
     15 C         144.0412  141.3676  164.2753 C.ar    1  UNL1        0.1708
     16 C         144.1405  141.6424  162.8040 C.ar    1  UNL1        0.1682
     17 N         144.1791  140.5031  161.8291 N.ar    1  UNL1       -0.2304
     18 N         144.2011  143.0566  162.3076 N.am    1  UNL1       -0.2639
     19 C         144.1625  144.1960  163.2826 C.2     1  UNL1        0.2718
     20 O         144.2231  145.6102  162.7863 O.2     1  UNL1       -0.2707
     21 C         144.0632  143.9211  164.7538 C.3     1  UNL1        0.2898
     22 O         144.0026  142.5068  165.2502 O.3     1  UNL1       -0.4628
     23 H         144.2663  143.2371  161.3420 H       1  UNL1        0.1565
     24 C         137.6619  140.1953  161.4869 C.3     1  UNL1        0.0970
     25 C         137.4121  141.0596  162.6871 C.3     1  UNL1        0.1264
     26 C         139.1894  140.2747  166.7461 C.ar    1  UNL1        0.1403
     27 C         140.2792  141.1613  167.2717 C.ar    1  UNL1        0.0385
     28 C         140.7766  142.3094  166.4444 C.ar    1  UNL1        0.0237
     29 C         140.1842  142.5710  165.0915 C.ar    1  UNL1        0.0975
     30 N         140.6815  143.7192  164.2642 N.ar    1  UNL1       -0.2374
     31 C         140.0891  143.9808  162.9113 C.ar    1  UNL1        0.1594
     32 C         138.9993  143.0943  162.3855 C.ar    1  UNL1        0.2803
     33 O         138.4068  143.3559  161.0326 O.2     1  UNL1       -0.2653
     34 N         138.5019  141.9461  163.2128 N.ar    1  UNL1       -0.2913
     35 C         139.0944  141.6845  164.5658 C.ar    1  UNL1        0.0832
     36 C         138.5970  140.5364  165.3931 C.ar    1  UNL1        0.0557
     37 C         137.5311  138.3056  167.0958 C.3     1  UNL1        0.2525
     38 O         138.6921  139.1266  167.5733 O.3     1  UNL1       -0.4714
@<TRIPOS>BOND
     1    37    38    1
     2    38    26    1
     3    26    27   ar
     4    27    28   ar
     5    28    29   ar
     6    29    30   ar
     7    30    31   ar
     8    31    32   ar
     9    32    33    2
    10    32    34   ar
    11    34    25    1
    12    25    24    1
    13    24     1    1
    14     1     2    1
    15     2     3    1
    16     3     4    1
    17     4     9    1
    18     9    11    1
    19    11    12    1
    20    12    13   ar
    21    13    14   ar
    22    14    15   ar
    23    15    16   ar
    24    16    17   ar
    25    16    18    1
    26    18    19   am
    27    19    20    2
    28    19    21    1
    29    21    22    1
    30     4     5    1
    31     5     6    1
    32     5     7    1
    33    34    35   ar
    34    35    36   ar
    35    36    26   ar
    36    35    29   ar
    37     7     1    1
    38    17    12   ar
    39    22    15    1
    40     9    10    1
    41    18    23    1
    42     6     8    1
@<TRIPOS>MOLECULE
*****
 38 42 0 0 0
SMALL
GASTEIGER

@<TRIPOS>ATOM
      1 N         138.0038  140.1608  162.4609 N.3     1  UNL1       -0.2689
      2 C         137.6276  140.9118  163.7037 C.3     1  UNL1        0.0737
      3 C         137.5555  142.4099  163.6818 C.3     1  UNL1        0.0356
      4 C         137.8595  143.1570  162.4171 C.3     1  UNL1        0.0843
      5 C         138.2357  142.4060  161.1743 C.3     1  UNL1        0.1407
      6 O         138.5397  143.1531  159.9096 O.3     1  UNL1       -0.3817
      7 C         138.3078  140.9079  161.1962 C.3     1  UNL1        0.1031
      8 H         138.4475  144.1059  160.0668 H       1  UNL1        0.2105
      9 N         137.7874  144.6551  162.3952 N.3     1  UNL1       -0.2915
     10 H         137.0651  144.9250  163.0630 H       1  UNL1        0.1236
     11 C         139.0043  145.4694  162.7210 C.3     1  UNL1        0.1152
     12 C         140.3598  144.8272  162.7162 C.ar    1  UNL1        0.0765
     13 C         141.0536  144.5303  164.0125 C.ar    1  UNL1        0.0193
     14 C         142.4092  143.8880  164.0078 C.ar    1  UNL1        0.0411
     15 C         143.0709  143.5426  162.7067 C.ar    1  UNL1        0.1708
     16 C         142.3770  143.8395  161.4103 C.ar    1  UNL1        0.1682
     17 N         141.0215  144.4817  161.4151 N.ar    1  UNL1       -0.2304
     18 N         143.0387  143.4941  160.1092 N.am    1  UNL1       -0.2639
     19 C         144.3943  142.8518  160.1045 C.2     1  UNL1        0.2718
     20 O         145.0560  142.5064  158.8034 O.2     1  UNL1       -0.2707
     21 C         145.0881  142.5550  161.4008 C.3     1  UNL1        0.2898
     22 O         144.4264  142.9004  162.7019 O.3     1  UNL1       -0.4628
     23 H         142.5833  143.6889  159.2584 H       1  UNL1        0.1565
     24 C         138.0759  138.6627  162.4828 C.3     1  UNL1        0.0970
     25 C         139.1725  137.9756  163.2412 C.3     1  UNL1        0.1264
     26 C         140.0504  139.7595  167.2782 C.ar    1  UNL1        0.1403
     27 C         141.3517  140.4654  167.5193 C.ar    1  UNL1        0.0385
     28 C         142.3604  140.5767  166.4147 C.ar    1  UNL1        0.0237
     29 C         142.0678  139.9821  165.0691 C.ar    1  UNL1        0.0975
     30 N         143.0766  140.0935  163.9646 N.ar    1  UNL1       -0.2374
     31 C         142.7840  139.4989  162.6189 C.ar    1  UNL1        0.1594
     32 C         141.4826  138.7929  162.3778 C.ar    1  UNL1        0.2803
     33 O         141.1900  138.1983  161.0321 O.2     1  UNL1       -0.2653
     34 N         140.4739  138.6816  163.4823 N.ar    1  UNL1       -0.2913
     35 C         140.7665  139.2762  164.8280 C.ar    1  UNL1        0.0832
     36 C         139.7578  139.1649  165.9326 C.ar    1  UNL1        0.0557
     37 C         139.2227  140.4363  169.6461 C.3     1  UNL1        0.2525
     38 O         139.0416  139.6482  168.3828 O.3     1  UNL1       -0.4714
@<TRIPOS>BOND
     1    37    38    1
     2    38    26    1
     3    26    27   ar
     4    27    28   ar
     5    28    29   ar
     6    29    30   ar
     7    30    31   ar
     8    31    32   ar
     9    32    33    2
    10    32    34   ar
    11    34    25    1
    12    25    24    1
    13    24     1    1
    14     1     2    1
    15     2     3    1
    16     3     4    1
    17     4     9    1
    18     9    11    1
    19    11    12    1
    20    12    13   ar
    21    13    14   ar
    22    14    15   ar
    23    15    16   ar
    24    16    17   ar
    25    16    18    1
    26    18    19   am
    27    19    20    2
    28    19    21    1
    29    21    22    1
    30     4     5    1
    31     5     6    1
    32     5     7    1
    33    34    35   ar
    34    35    36   ar
    35    36    26   ar
    36    35    29   ar
    37     7     1    1
    38    17    12   ar
    39    22    15    1
    40     9    10    1
    41    18    23    1
    42     6     8    1
@<TRIPOS>MOLECULE
*****
 38 42 0 0 0
SMALL
GASTEIGER

@<TRIPOS>ATOM
      1 N         142.6553  144.2658  163.4559 N.3     1  UNL1       -0.2689
      2 C         142.5689  144.0804  161.9699 C.3     1  UNL1        0.0737
      3 C         141.2318  143.9107  161.3117 C.3     1  UNL1        0.0356
      4 C         139.9810  143.9265  162.1396 C.3     1  UNL1        0.0843
      5 C         140.0674  144.1119  163.6255 C.3     1  UNL1        0.1407
      6 O         138.8165  144.1276  164.4534 O.3     1  UNL1       -0.3817
      7 C         141.4045  144.2815  164.2837 C.3     1  UNL1        0.1031
      8 H         138.0458  144.0060  163.8770 H       1  UNL1        0.2105
      9 N         138.6438  143.7568  161.4814 N.3     1  UNL1       -0.2915
     10 H         138.6048  144.4300  160.7160 H       1  UNL1        0.1236
     11 C         138.2532  142.4267  160.9085 C.3     1  UNL1        0.1152
     12 C         138.4205  141.1799  161.7255 C.ar    1  UNL1        0.0765
     13 C         138.9214  139.9220  161.0801 C.ar    1  UNL1        0.0193
     14 C         139.0887  138.6751  161.8971 C.ar    1  UNL1        0.0411
     15 C         138.7552  138.6863  163.3595 C.ar    1  UNL1        0.1708
     16 C         138.2544  139.9444  164.0049 C.ar    1  UNL1        0.1682
     17 N         138.0870  141.1911  163.1879 N.ar    1  UNL1       -0.2304
     18 N         137.9209  139.9556  165.4673 N.am    1  UNL1       -0.2639
     19 C         138.0882  138.7087  166.2843 C.2     1  UNL1        0.2718
     20 O         137.7547  138.7199  167.7468 O.2     1  UNL1       -0.2707
     21 C         138.5891  137.4507  165.6389 C.3     1  UNL1        0.2898
     22 O         138.9226  137.4395  164.1765 O.3     1  UNL1       -0.4628
     23 H         137.5921  140.7812  165.8910 H       1  UNL1        0.1565
     24 C         143.9925  144.4354  164.1141 C.3     1  UNL1        0.0970
     25 C         144.6720  143.2571  164.7465 C.3     1  UNL1        0.1264
     26 C         141.9521  141.2563  167.7211 C.ar    1  UNL1        0.1403
     27 C         141.4456  139.8689  167.4593 C.ar    1  UNL1        0.0385
     28 C         141.8458  139.1484  166.2060 C.ar    1  UNL1        0.0237
     29 C         142.7524  139.8154  165.2144 C.ar    1  UNL1        0.0975
     30 N         143.1525  139.0949  163.9611 N.ar    1  UNL1       -0.2374
     31 C         144.0591  139.7618  162.9695 C.ar    1  UNL1        0.1594
     32 C         144.5657  141.1493  163.2313 C.ar    1  UNL1        0.2803
     33 O         145.4723  141.8162  162.2398 O.2     1  UNL1       -0.2653
     34 N         144.1655  141.8698  164.4847 N.ar    1  UNL1       -0.2913
     35 C         143.2589  141.2027  165.4762 C.ar    1  UNL1        0.0832
     36 C         142.8587  141.9232  166.7296 C.ar    1  UNL1        0.0557
     37 C         140.5061  143.0505  168.9209 C.3     1  UNL1        0.2525
     38 O         141.5520  141.9767  168.9744 O.3     1  UNL1       -0.4714
@<TRIPOS>BOND
     1    37    38    1
     2    38    26    1
     3    26    27   ar
     4    27    28   ar
     5    28    29   ar
     6    29    30   ar
     7    30    31   ar
     8    31    32   ar
     9    32    33    2
    10    32    34   ar
    11    34    25    1
    12    25    24    1
    13    24     1    1
    14     1     2    1
    15     2     3    1
    16     3     4    1
    17     4     9    1
    18     9    11    1
    19    11    12    1
    20    12    13   ar
    21    13    14   ar
    22    14    15   ar
    23    15    16   ar
    24    16    17   ar
    25    16    18    1
    26    18    19   am
    27    19    20    2
    28    19    21    1
    29    21    22    1
    30     4     5    1
    31     5     6    1
    32     5     7    1
    33    34    35   ar
    34    35    36   ar
    35    36    26   ar
    36    35    29   ar
    37     7     1    1
    38    17    12   ar
    39    22    15    1
    40     9    10    1
    41    18    23    1
    42     6     8    1
@<TRIPOS>MOLECULE
*****
 38 42 0 0 0
SMALL
GASTEIGER

@<TRIPOS>ATOM
      1 N         138.9065  144.0321  163.1312 N.3     1  UNL1       -0.2689
      2 C         139.3454  143.7407  164.5356 C.3     1  UNL1        0.0737
      3 C         138.9819  142.4356  165.1794 C.3     1  UNL1        0.0356
      4 C         138.1795  141.4220  164.4188 C.3     1  UNL1        0.0843
      5 C         137.7406  141.7134  163.0144 C.3     1  UNL1        0.1407
      6 O         136.9381  140.6997  162.2538 O.3     1  UNL1       -0.3817
      7 C         138.1041  143.0185  162.3706 C.3     1  UNL1        0.1031
      8 H         136.7917  139.9192  162.8108 H       1  UNL1        0.2105
      9 N         137.8159  140.1168  165.0626 N.3     1  UNL1       -0.2915
     10 H         137.3066  139.5756  164.3640 H       1  UNL1        0.1236
     11 C         138.8915  139.2222  165.6038 C.3     1  UNL1        0.1152
     12 C         140.1867  139.0733  164.8622 C.ar    1  UNL1        0.0765
     13 C         141.4840  139.3811  165.5493 C.ar    1  UNL1        0.0193
     14 C         142.7794  139.2322  164.8077 C.ar    1  UNL1        0.0411
     15 C         142.7774  138.7755  163.3789 C.ar    1  UNL1        0.1708
     16 C         141.4800  138.4676  162.6918 C.ar    1  UNL1        0.1682
     17 N         140.1847  138.6165  163.4334 N.ar    1  UNL1       -0.2304
     18 N         141.4780  138.0109  161.2630 N.am    1  UNL1       -0.2639
     19 C         142.7733  137.8620  160.5214 C.2     1  UNL1        0.2718
     20 O         142.7713  137.4053  159.0926 O.2     1  UNL1       -0.2707
     21 C         144.0706  138.1698  161.2085 C.3     1  UNL1        0.2898
     22 O         144.0726  138.6266  162.6373 O.3     1  UNL1       -0.4628
     23 H         140.6265  137.8088  160.8120 H       1  UNL1        0.1565
     24 C         139.2701  145.3373  162.4874 C.3     1  UNL1        0.0970
     25 C         140.7117  145.6915  162.2721 C.3     1  UNL1        0.1264
     26 C         143.9531  143.2609  164.2305 C.ar    1  UNL1        0.1403
     27 C         144.8283  142.3700  163.3996 C.ar    1  UNL1        0.0385
     28 C         144.6230  142.2893  161.9160 C.ar    1  UNL1        0.0237
     29 C         143.5426  143.0995  161.2631 C.ar    1  UNL1        0.0975
     30 N         143.3373  143.0188  159.7794 N.ar    1  UNL1       -0.2374
     31 C         142.2569  143.8290  159.1266 C.ar    1  UNL1        0.1594
     32 C         141.3816  144.7199  159.9575 C.ar    1  UNL1        0.2803
     33 O         140.3012  145.5301  159.3047 O.2     1  UNL1       -0.2653
     34 N         141.5869  144.8006  161.4412 N.ar    1  UNL1       -0.2913
     35 C         142.6674  143.9904  162.0940 C.ar    1  UNL1        0.0832
     36 C         142.8727  144.0711  163.5777 C.ar    1  UNL1        0.0557
     37 C         143.3542  142.4684  166.6312 C.3     1  UNL1        0.2525
     38 O         144.1584  143.3415  165.7142 O.3     1  UNL1       -0.4714
@<TRIPOS>BOND
     1    37    38    1
     2    38    26    1
     3    26    27   ar
     4    27    28   ar
     5    28    29   ar
     6    29    30   ar
     7    30    31   ar
     8    31    32   ar
     9    32    33    2
    10    32    34   ar
    11    34    25    1
    12    25    24    1
    13    24     1    1
    14     1     2    1
    15     2     3    1
    16     3     4    1
    17     4     9    1
    18     9    11    1
    19    11    12    1
    20    12    13   ar
    21    13    14   ar
    22    14    15   ar
    23    15    16   ar
    24    16    17   ar
    25    16    18    1
    26    18    19   am
    27    19    20    2
    28    19    21    1
    29    21    22    1
    30     4     5    1
    31     5     6    1
    32     5     7    1
    33    34    35   ar
    34    35    36   ar
    35    36    26   ar
    36    35    29   ar
    37     7     1    1
    38    17    12   ar
    39    22    15    1
    40     9    10    1
    41    18    23    1
    42     6     8    1
@<TRIPOS>MOLECULE
*****
 38 42 0 0 0
SMALL
GASTEIGER

@<TRIPOS>ATOM
      1 N         137.8285  142.6186  163.8125 N.3     1  UNL1       -0.2689
      2 C         137.7059  142.5111  162.3213 C.3     1  UNL1        0.0737
      3 C         137.8068  141.1709  161.6552 C.3     1  UNL1        0.0356
      4 C         138.0301  139.9383  162.4801 C.3     1  UNL1        0.0843
      5 C         138.1526  140.0458  163.9713 C.3     1  UNL1        0.1407
      6 O         138.3760  138.8130  164.7962 O.3     1  UNL1       -0.3817
      7 C         138.0518  141.3859  164.6374 C.3     1  UNL1        0.1031
      8 H         138.4165  138.0377  164.2147 H       1  UNL1        0.2105
      9 N         138.1309  138.5980  161.8140 N.3     1  UNL1       -0.2915
     10 H         137.3941  138.5632  161.1096 H       1  UNL1        0.1236
     11 C         139.4034  138.1944  161.1300 C.3     1  UNL1        0.1152
     12 C         140.7252  138.4614  161.7867 C.ar    1  UNL1        0.0765
     13 C         141.8399  139.0868  161.0016 C.ar    1  UNL1        0.0193
     14 C         143.1619  139.3538  161.6583 C.ar    1  UNL1        0.0411
     15 C         143.3691  138.9955  163.1001 C.ar    1  UNL1        0.1708
     16 C         142.2543  138.3701  163.8852 C.ar    1  UNL1        0.1682
     17 N         140.9324  138.1031  163.2284 N.ar    1  UNL1       -0.2304
     18 N         142.4615  138.0118  165.3269 N.am    1  UNL1       -0.2639
     19 C         143.7834  138.2789  165.9836 C.2     1  UNL1        0.2718
     20 O         143.9906  137.9206  167.4254 O.2     1  UNL1       -0.2707
     21 C         144.8981  138.9042  165.1986 C.3     1  UNL1        0.2898
     22 O         144.6909  139.2626  163.7568 O.3     1  UNL1       -0.4628
     23 H         141.7298  137.6014  165.8422 H       1  UNL1        0.1565
     24 C         137.7277  143.9588  164.4786 C.3     1  UNL1        0.0970
     25 C         138.9673  144.7627  164.7376 C.3     1  UNL1        0.1264
     26 C         141.5847  142.2040  167.3552 C.ar    1  UNL1        0.1403
     27 C         142.9110  141.7220  166.8470 C.ar    1  UNL1        0.0385
     28 C         143.3649  142.0928  165.4663 C.ar    1  UNL1        0.0237
     29 C         142.4925  142.9456  164.5938 C.ar    1  UNL1        0.0975
     30 N         142.9464  143.3164  163.2130 N.ar    1  UNL1       -0.2374
     31 C         142.0740  144.1693  162.3405 C.ar    1  UNL1        0.1594
     32 C         140.7475  144.6515  162.8486 C.ar    1  UNL1        0.2803
     33 O         139.8751  145.5043  161.9761 O.2     1  UNL1       -0.2653
     34 N         140.2936  144.2807  164.2294 N.ar    1  UNL1       -0.2913
     35 C         141.1661  143.4277  165.1019 C.ar    1  UNL1        0.0832
     36 C         140.7122  143.0569  166.4827 C.ar    1  UNL1        0.0557
     37 C         140.3142  142.7995  169.5418 C.3     1  UNL1        0.2525
     38 O         141.1307  141.8332  168.7360 O.3     1  UNL1       -0.4714
@<TRIPOS>BOND
     1    37    38    1
     2    38    26    1
     3    26    27   ar
     4    27    28   ar
     5    28    29   ar
     6    29    30   ar
     7    30    31   ar
     8    31    32   ar
     9    32    33    2
    10    32    34   ar
    11    34    25    1
    12    25    24    1
    13    24     1    1
    14     1     2    1
    15     2     3    1
    16     3     4    1
    17     4     9    1
    18     9    11    1
    19    11    12    1
    20    12    13   ar
    21    13    14   ar
    22    14    15   ar
    23    15    16   ar
    24    16    17   ar
    25    16    18    1
    26    18    19   am
    27    19    20    2
    28    19    21    1
    29    21    22    1
    30     4     5    1
    31     5     6    1
    32     5     7    1
    33    34    35   ar
    34    35    36   ar
    35    36    26   ar
    36    35    29   ar
    37     7     1    1
    38    17    12   ar
    39    22    15    1
    40     9    10    1
    41    18    23    1
    42     6     8    1
