@<TRIPOS>MOLECULE
*****
 38 43 0 0 0
SMALL
GASTEIGER

@<TRIPOS>ATOM
      1 C         141.2683  141.9774  170.5754 C.3     1  UNL1        0.1352
      2 N         141.5194  141.5388  169.1631 N.ar    1  UNL1       -0.2765
      3 C         142.7189  141.8860  168.3321 C.ar    1  UNL1        0.3317
      4 O         143.8781  142.7327  168.7675 O.2     1  UNL1       -0.2463
      5 N         142.5558  141.2377  166.9893 N.ar    1  UNL1       -0.2792
      6 C         141.2555  140.4900  166.9903 C.ar    1  UNL1        0.0826
      7 C         140.5720  139.6637  165.9415 C.ar    1  UNL1        0.0352
      8 C         141.2126  139.4776  164.5980 C.ar    1  UNL1        0.0053
      9 C         140.5291  138.6513  163.5492 C.ar    1  UNL1        0.0291
     10 C         139.2050  138.0110  163.8439 C.ar    1  UNL1        0.1416
     11 F         138.5214  137.1847  162.7950 F       1  UNL1       -0.2041
     12 C         138.5644  138.1971  165.1874 C.ar    1  UNL1        0.0488
     13 C         139.2479  139.0234  166.2362 C.ar    1  UNL1        0.0850
     14 N         138.6073  139.2095  167.5797 N.ar    1  UNL1       -0.2422
     15 C         139.2908  140.0358  168.6285 C.ar    1  UNL1        0.1175
     16 C         140.6149  140.6760  168.3338 C.ar    1  UNL1        0.0989
     17 C         143.5232  141.3224  165.8461 C.3     1  UNL1        0.1194
     18 C         144.1549  140.0745  165.3041 C.3     1  UNL1        0.0279
     19 C         145.1223  140.1591  164.1609 C.3     1  UNL1        0.0341
     20 C         145.4581  141.4916  163.5596 C.3     1  UNL1        0.1423
     21 O         144.8264  142.7396  164.1015 O.3     1  UNL1       -0.3518
     22 C         143.8590  142.6549  165.2448 C.3     1  UNL1        0.1647
     23 C         141.1697  138.4652  162.2056 C.ar    1  UNL1        0.0216
     24 C         142.5963  138.0115  162.1113 C.ar    1  UNL1        0.0064
     25 C         143.2369  137.8254  160.7679 C.ar    1  UNL1        0.0577
     26 C         142.4508  138.0929  159.5187 C.ar    1  UNL1        0.2249
     27 N         141.0242  138.5466  159.6130 N.ar    1  UNL1       -0.2101
     28 C         140.3836  138.7327  160.9564 C.ar    1  UNL1        0.1021
     29 O         143.0914  137.9068  158.1751 O.3     1  UNL1       -0.4602
     30 C         142.4828  136.9660  157.1779 C.3     1  UNL1        0.2085
     31 C         143.2585  135.7742  156.7008 C.3     1  UNL1        0.0647
     32 C         142.5637  134.4611  156.4934 C.3     1  UNL1        0.0759
     33 N         143.2418  133.1830  156.8892 N.3     1  UNL1       -0.2726
     34 C         142.6320  131.8640  156.5174 C.3     1  UNL1        0.0721
     35 C         143.3102  130.5859  156.9132 C.3     1  UNL1        0.0174
     36 C         144.5982  130.6269  157.6808 C.3     1  UNL1        0.0029
     37 C         145.2081  131.9459  158.0527 C.3     1  UNL1        0.0174
     38 C         144.5299  133.2239  157.6569 C.3     1  UNL1        0.0721
@<TRIPOS>BOND
     1     1     2    1
     2     2     3   ar
     3     3     4    2
     4     3     5   ar
     5    17     5    1
     6    17    18    1
     7    18    19    1
     8    19    20    1
     9    20    21    1
    10    21    22    1
    11     5     6   ar
    12     6     7   ar
    13     7     8   ar
    14     8     9   ar
    15     9    23    1
    16    23    24   ar
    17    24    25   ar
    18    25    26   ar
    19    26    29    1
    20    29    30    1
    21    30    31    1
    22    31    32    1
    23    32    33    1
    24    33    34    1
    25    34    35    1
    26    35    36    1
    27    36    37    1
    28    37    38    1
    29    26    27   ar
    30    27    28   ar
    31     9    10   ar
    32    10    11    1
    33    10    12   ar
    34    12    13   ar
    35    13    14   ar
    36    14    15   ar
    37    15    16   ar
    38    16     2   ar
    39    22    17    1
    40    16     6   ar
    41    13     7   ar
    42    28    23   ar
    43    38    33    1
@<TRIPOS>MOLECULE
*****
 38 43 0 0 0
SMALL
GASTEIGER

@<TRIPOS>ATOM
      1 C         141.2805  141.9677  170.6069 C.3     1  UNL1        0.1352
      2 N         141.5242  141.5352  169.1915 N.ar    1  UNL1       -0.2765
      3 C         142.7192  141.8862  168.3557 C.ar    1  UNL1        0.3317
      4 O         143.8806  142.7312  168.7886 O.2     1  UNL1       -0.2463
      5 N         142.5492  141.2437  167.0109 N.ar    1  UNL1       -0.2792
      6 C         141.2490  140.4958  167.0156 C.ar    1  UNL1        0.0826
      7 C         140.5600  139.6739  165.9668 C.ar    1  UNL1        0.0352
      8 C         141.1935  139.4938  164.6191 C.ar    1  UNL1        0.0053
      9 C         140.5046  138.6719  163.5704 C.ar    1  UNL1        0.0291
     10 C         139.1822  138.0302  163.8693 C.ar    1  UNL1        0.1416
     11 F         138.4932  137.2084  162.8204 F       1  UNL1       -0.2041
     12 C         138.5486  138.2104  165.2169 C.ar    1  UNL1        0.0488
     13 C         139.2376  139.0322  166.2657 C.ar    1  UNL1        0.0850
     14 N         138.6041  139.2124  167.6133 N.ar    1  UNL1       -0.2422
     15 C         139.2930  140.0342  168.6621 C.ar    1  UNL1        0.1175
     16 C         140.6155  140.6759  168.3632 C.ar    1  UNL1        0.0989
     17 C         143.5105  141.3335  165.8630 C.3     1  UNL1        0.1194
     18 C         144.1007  140.0840  165.2795 C.3     1  UNL1        0.0279
     19 C         145.0621  140.1738  164.1316 C.3     1  UNL1        0.0341
     20 C         145.4333  141.5130  163.5671 C.3     1  UNL1        0.1423
     21 O         144.8430  142.7625  164.1505 O.3     1  UNL1       -0.3518
     22 C         143.8817  142.6727  165.2985 C.3     1  UNL1        0.1647
     23 C         141.1381  138.4918  162.2226 C.ar    1  UNL1        0.0216
     24 C         140.3367  138.7363  160.9785 C.ar    1  UNL1        0.0064
     25 C         140.9701  138.5562  159.6308 C.ar    1  UNL1        0.0577
     26 C         142.4050  138.1315  159.5273 C.ar    1  UNL1        0.2249
     27 N         143.2064  137.8869  160.7714 N.ar    1  UNL1       -0.2101
     28 C         142.5730  138.0670  162.1191 C.ar    1  UNL1        0.1021
     29 O         143.0385  137.9513  158.1796 O.3     1  UNL1       -0.4602
     30 C         143.2973  139.1437  157.3071 C.3     1  UNL1        0.2085
     31 C         143.8888  140.3899  157.8962 C.3     1  UNL1        0.0647
     32 C         143.0407  141.6157  158.0642 C.3     1  UNL1        0.0759
     33 N         142.2955  141.8423  159.3460 N.3     1  UNL1       -0.2726
     34 C         142.9962  141.6717  160.6612 C.3     1  UNL1        0.0721
     35 C         142.2509  141.8982  161.9431 C.3     1  UNL1        0.0174
     36 C         140.8048  142.2954  161.9098 C.3     1  UNL1        0.0029
     37 C         140.1041  142.4660  160.5945 C.3     1  UNL1        0.0174
     38 C         140.8493  142.2394  159.3127 C.3     1  UNL1        0.0721
@<TRIPOS>BOND
     1     1     2    1
     2     2     3   ar
     3     3     4    2
     4     3     5   ar
     5    17     5    1
     6    17    18    1
     7    18    19    1
     8    19    20    1
     9    20    21    1
    10    21    22    1
    11     5     6   ar
    12     6     7   ar
    13     7     8   ar
    14     8     9   ar
    15     9    23    1
    16    23    24   ar
    17    24    25   ar
    18    25    26   ar
    19    26    29    1
    20    29    30    1
    21    30    31    1
    22    31    32    1
    23    32    33    1
    24    33    34    1
    25    34    35    1
    26    35    36    1
    27    36    37    1
    28    37    38    1
    29    26    27   ar
    30    27    28   ar
    31     9    10   ar
    32    10    11    1
    33    10    12   ar
    34    12    13   ar
    35    13    14   ar
    36    14    15   ar
    37    15    16   ar
    38    16     2   ar
    39    22    17    1
    40    16     6   ar
    41    13     7   ar
    42    28    23   ar
    43    38    33    1
@<TRIPOS>MOLECULE
*****
 38 43 0 0 0
SMALL
GASTEIGER

@<TRIPOS>ATOM
      1 C         139.6655  143.7477  156.7517 C.3     1  UNL1        0.1352
      2 N         139.5903  143.3322  158.1910 N.ar    1  UNL1       -0.2765
      3 C         139.7454  144.2353  159.3786 C.ar    1  UNL1        0.3317
      4 O         140.0030  145.7124  159.3354 O.2     1  UNL1       -0.2463
      5 N         139.5978  143.4019  160.6171 N.ar    1  UNL1       -0.2792
      6 C         139.3514  141.9838  160.1949 C.ar    1  UNL1        0.0826
      7 C         139.1306  140.7262  160.9820 C.ar    1  UNL1        0.0352
      8 C         139.1353  140.7692  162.4814 C.ar    1  UNL1        0.0053
      9 C         138.9145  139.5116  163.2685 C.ar    1  UNL1        0.0291
     10 C         138.6892  138.2108  162.5563 C.ar    1  UNL1        0.1416
     11 F         138.4684  136.9531  163.3435 F       1  UNL1       -0.2041
     12 C         138.6845  138.1677  161.0569 C.ar    1  UNL1        0.0488
     13 C         138.9053  139.4254  160.2697 C.ar    1  UNL1        0.0850
     14 N         138.9007  139.3823  158.7704 N.ar    1  UNL1       -0.2422
     15 C         139.1214  140.6400  157.9833 C.ar    1  UNL1        0.1175
     16 C         139.3468  141.9407  158.6956 C.ar    1  UNL1        0.0989
     17 C         139.6817  143.8993  162.0297 C.3     1  UNL1        0.1194
     18 C         140.9948  143.8808  162.7546 C.3     1  UNL1        0.0279
     19 C         141.0788  144.3782  164.1672 C.3     1  UNL1        0.0341
     20 C         139.8498  144.8941  164.8550 C.3     1  UNL1        0.1423
     21 O         138.5367  144.9127  164.1302 O.3     1  UNL1       -0.3518
     22 C         138.4527  144.4153  162.7175 C.3     1  UNL1        0.1647
     23 C         138.9191  139.5546  164.7679 C.ar    1  UNL1        0.0216
     24 C         139.5536  140.7105  165.4831 C.ar    1  UNL1        0.0064
     25 C         139.5582  140.7536  166.9824 C.ar    1  UNL1        0.0577
     26 C         138.9284  139.6408  167.7666 C.ar    1  UNL1        0.2249
     27 N         138.2939  138.4849  167.0515 N.ar    1  UNL1       -0.2101
     28 C         138.2893  138.4418  165.5521 C.ar    1  UNL1        0.1021
     29 O         138.9330  139.6839  169.2661 O.3     1  UNL1       -0.4602
     30 C         139.8999  140.5751  169.9878 C.3     1  UNL1        0.2085
     31 C         141.1647  140.0042  170.5571 C.3     1  UNL1        0.0647
     32 C         142.4951  140.4675  170.0420 C.3     1  UNL1        0.0759
     33 N         142.7220  140.6026  168.5655 N.3     1  UNL1       -0.2726
     34 C         142.8960  141.9615  167.9546 C.3     1  UNL1        0.0721
     35 C         143.1229  142.0965  166.4779 C.3     1  UNL1        0.0174
     36 C         143.1759  140.8726  165.6123 C.3     1  UNL1        0.0029
     37 C         143.0019  139.5138  166.2232 C.3     1  UNL1        0.0174
     38 C         142.7750  139.3787  167.6997 C.3     1  UNL1        0.0721
@<TRIPOS>BOND
     1     1     2    1
     2     2     3   ar
     3     3     4    2
     4     3     5   ar
     5    17     5    1
     6    17    18    1
     7    18    19    1
     8    19    20    1
     9    20    21    1
    10    21    22    1
    11     5     6   ar
    12     6     7   ar
    13     7     8   ar
    14     8     9   ar
    15     9    23    1
    16    23    24   ar
    17    24    25   ar
    18    25    26   ar
    19    26    29    1
    20    29    30    1
    21    30    31    1
    22    31    32    1
    23    32    33    1
    24    33    34    1
    25    34    35    1
    26    35    36    1
    27    36    37    1
    28    37    38    1
    29    26    27   ar
    30    27    28   ar
    31     9    10   ar
    32    10    11    1
    33    10    12   ar
    34    12    13   ar
    35    13    14   ar
    36    14    15   ar
    37    15    16   ar
    38    16     2   ar
    39    22    17    1
    40    16     6   ar
    41    13     7   ar
    42    28    23   ar
    43    38    33    1
@<TRIPOS>MOLECULE
*****
 38 43 0 0 0
SMALL
GASTEIGER

@<TRIPOS>ATOM
      1 C         139.8411  140.2172  170.3645 C.3     1  UNL1        0.1352
      2 N         140.0746  140.3473  168.8885 N.ar    1  UNL1       -0.2765
      3 C         139.2273  139.7477  167.8057 C.ar    1  UNL1        0.3317
      4 O         137.9977  138.9128  168.0087 O.2     1  UNL1       -0.2463
      5 N         139.8254  140.1296  166.4841 N.ar    1  UNL1       -0.2792
      6 C         141.0423  140.9652  166.7502 C.ar    1  UNL1        0.0826
      7 C         142.0301  141.6210  165.8315 C.ar    1  UNL1        0.0352
      8 C         141.8761  141.4865  164.3454 C.ar    1  UNL1        0.0053
      9 C         142.8639  142.1423  163.4266 C.ar    1  UNL1        0.0291
     10 C         144.0057  142.9326  163.9938 C.ar    1  UNL1        0.1416
     11 F         144.9935  143.5884  163.0749 F       1  UNL1       -0.2041
     12 C         144.1597  143.0671  165.4798 C.ar    1  UNL1        0.0488
     13 C         143.1719  142.4113  166.3986 C.ar    1  UNL1        0.0850
     14 N         143.3259  142.5459  167.8846 N.ar    1  UNL1       -0.2422
     15 C         142.3381  141.8901  168.8034 C.ar    1  UNL1        0.1175
     16 C         141.1963  141.0998  168.2362 C.ar    1  UNL1        0.0989
     17 C         139.2990  139.7437  165.1336 C.3     1  UNL1        0.1194
     18 C         139.8022  138.5019  164.4593 C.3     1  UNL1        0.0279
     19 C         139.2758  138.1159  163.1088 C.3     1  UNL1        0.0341
     20 C         138.2462  138.9717  162.4325 C.3     1  UNL1        0.1423
     21 O         137.7430  140.2136  163.1068 O.3     1  UNL1       -0.3518
     22 C         138.2694  140.5995  164.4573 C.3     1  UNL1        0.1647
     23 C         142.7099  142.0077  161.9406 C.ar    1  UNL1        0.0216
     24 C         142.1463  140.7465  161.3561 C.ar    1  UNL1        0.0064
     25 C         141.9923  140.6120  159.8701 C.ar    1  UNL1        0.0577
     26 C         142.4019  141.7386  158.9687 C.ar    1  UNL1        0.2249
     27 N         142.9655  142.9999  159.5531 N.ar    1  UNL1       -0.2101
     28 C         143.1195  143.1344  161.0391 C.ar    1  UNL1        0.1021
     29 O         142.2479  141.6041  157.4826 O.3     1  UNL1       -0.4602
     30 C         141.1801  142.3766  156.7663 C.3     1  UNL1        0.2085
     31 C         139.8702  142.6504  157.4437 C.3     1  UNL1        0.0647
     32 C         139.6158  143.9887  158.0715 C.3     1  UNL1        0.0759
     33 N         139.6856  144.1436  159.5618 N.3     1  UNL1       -0.2726
     34 C         140.2509  145.3976  160.1599 C.3     1  UNL1        0.0721
     35 C         140.3207  145.5524  161.6504 C.3     1  UNL1        0.0174
     36 C         139.8252  144.4531  162.5426 C.3     1  UNL1        0.0029
     37 C         139.2599  143.1991  161.9445 C.3     1  UNL1        0.0174
     38 C         139.1901  143.0443  160.4541 C.3     1  UNL1        0.0721
@<TRIPOS>BOND
     1     1     2    1
     2     2     3   ar
     3     3     4    2
     4     3     5   ar
     5    17     5    1
     6    17    18    1
     7    18    19    1
     8    19    20    1
     9    20    21    1
    10    21    22    1
    11     5     6   ar
    12     6     7   ar
    13     7     8   ar
    14     8     9   ar
    15     9    23    1
    16    23    24   ar
    17    24    25   ar
    18    25    26   ar
    19    26    29    1
    20    29    30    1
    21    30    31    1
    22    31    32    1
    23    32    33    1
    24    33    34    1
    25    34    35    1
    26    35    36    1
    27    36    37    1
    28    37    38    1
    29    26    27   ar
    30    27    28   ar
    31     9    10   ar
    32    10    11    1
    33    10    12   ar
    34    12    13   ar
    35    13    14   ar
    36    14    15   ar
    37    15    16   ar
    38    16     2   ar
    39    22    17    1
    40    16     6   ar
    41    13     7   ar
    42    28    23   ar
    43    38    33    1
@<TRIPOS>MOLECULE
*****
 38 43 0 0 0
SMALL
GASTEIGER

@<TRIPOS>ATOM
      1 C         141.1604  143.6219  156.4479 C.3     1  UNL1        0.1352
      2 N         140.8694  143.2019  157.8582 N.ar    1  UNL1       -0.2765
      3 C         140.2125  144.0442  158.9112 C.ar    1  UNL1        0.3317
      4 O         139.7312  145.4545  158.7390 O.2     1  UNL1       -0.2463
      5 N         140.1214  143.2287  160.1669 N.ar    1  UNL1       -0.2792
      6 C         140.7219  141.8823  159.8899 C.ar    1  UNL1        0.0826
      7 C         140.9075  140.6694  160.7525 C.ar    1  UNL1        0.0352
      8 C         140.4452  140.6859  162.1794 C.ar    1  UNL1        0.0053
      9 C         140.6308  139.4729  163.0420 C.ar    1  UNL1        0.0291
     10 C         141.2788  138.2433  162.4778 C.ar    1  UNL1        0.1416
     11 F         141.4644  137.0303  163.3405 F       1  UNL1       -0.2041
     12 C         141.7411  138.2268  161.0509 C.ar    1  UNL1        0.0488
     13 C         141.5555  139.4398  160.1882 C.ar    1  UNL1        0.0850
     14 N         142.0178  139.4232  158.7614 N.ar    1  UNL1       -0.2422
     15 C         141.8322  140.6362  157.8988 C.ar    1  UNL1        0.1175
     16 C         141.1842  141.8658  158.4630 C.ar    1  UNL1        0.0989
     17 C         139.5329  143.6801  161.4707 C.3     1  UNL1        0.1194
     18 C         138.2680  143.0547  161.9793 C.3     1  UNL1        0.0279
     19 C         137.6795  143.5062  163.2831 C.3     1  UNL1        0.0341
     20 C         138.3560  144.5831  164.0783 C.3     1  UNL1        0.1423
     21 O         139.6210  145.2086  163.5698 O.3     1  UNL1       -0.3518
     22 C         140.2094  144.7571  162.2660 C.3     1  UNL1        0.1647
     23 C         140.1685  139.4894  164.4689 C.ar    1  UNL1        0.0216
     24 C         138.7199  139.7162  164.7853 C.ar    1  UNL1        0.0064
     25 C         138.2575  139.7327  166.2122 C.ar    1  UNL1        0.0577
     26 C         139.2438  139.5224  167.3226 C.ar    1  UNL1        0.2249
     27 N         140.6924  139.2956  167.0062 N.ar    1  UNL1       -0.2101
     28 C         141.1547  139.2791  165.5793 C.ar    1  UNL1        0.1021
     29 O         138.7814  139.5389  168.7495 O.3     1  UNL1       -0.4602
     30 C         139.6156  140.2095  169.8005 C.3     1  UNL1        0.2085
     31 C         139.5988  141.7037  169.9309 C.3     1  UNL1        0.0647
     32 C         140.8309  142.4982  169.6138 C.3     1  UNL1        0.0759
     33 N         141.3553  142.5402  168.2092 N.3     1  UNL1       -0.2726
     34 C         140.4337  142.8756  167.0742 C.3     1  UNL1        0.0721
     35 C         140.9582  142.9177  165.6695 C.3     1  UNL1        0.0174
     36 C         142.4042  142.6243  165.3997 C.3     1  UNL1        0.0029
     37 C         143.3259  142.2890  166.5347 C.3     1  UNL1        0.0174
     38 C         142.8015  142.2469  167.9394 C.3     1  UNL1        0.0721
@<TRIPOS>BOND
     1     1     2    1
     2     2     3   ar
     3     3     4    2
     4     3     5   ar
     5    17     5    1
     6    17    18    1
     7    18    19    1
     8    19    20    1
     9    20    21    1
    10    21    22    1
    11     5     6   ar
    12     6     7   ar
    13     7     8   ar
    14     8     9   ar
    15     9    23    1
    16    23    24   ar
    17    24    25   ar
    18    25    26   ar
    19    26    29    1
    20    29    30    1
    21    30    31    1
    22    31    32    1
    23    32    33    1
    24    33    34    1
    25    34    35    1
    26    35    36    1
    27    36    37    1
    28    37    38    1
    29    26    27   ar
    30    27    28   ar
    31     9    10   ar
    32    10    11    1
    33    10    12   ar
    34    12    13   ar
    35    13    14   ar
    36    14    15   ar
    37    15    16   ar
    38    16     2   ar
    39    22    17    1
    40    16     6   ar
    41    13     7   ar
    42    28    23   ar
    43    38    33    1
@<TRIPOS>MOLECULE
*****
 38 43 0 0 0
SMALL
GASTEIGER

@<TRIPOS>ATOM
      1 C         141.2392  145.6770  157.4469 C.3     1  UNL1        0.1352
      2 N         141.2925  145.0540  158.8103 N.ar    1  UNL1       -0.2765
      3 C         140.4088  145.3987  159.9723 C.ar    1  UNL1        0.3317
      4 O         139.3165  146.4268  159.9749 O.2     1  UNL1       -0.2463
      5 N         140.8091  144.5347  161.1314 N.ar    1  UNL1       -0.2792
      6 C         141.9402  143.6561  160.6857 C.ar    1  UNL1        0.0826
      7 C         142.7367  142.6053  161.4007 C.ar    1  UNL1        0.0352
      8 C         142.4379  142.2843  162.8353 C.ar    1  UNL1        0.0053
      9 C         143.2345  141.2335  163.5503 C.ar    1  UNL1        0.0291
     10 C         144.3298  140.5036  162.8309 C.ar    1  UNL1        0.1416
     11 F         145.1263  139.4527  163.5460 F       1  UNL1       -0.2041
     12 C         144.6286  140.8245  161.3964 C.ar    1  UNL1        0.0488
     13 C         143.8320  141.8754  160.6813 C.ar    1  UNL1        0.0850
     14 N         144.1308  142.1963  159.2469 N.ar    1  UNL1       -0.2422
     15 C         143.3343  143.2471  158.5319 C.ar    1  UNL1        0.1175
     16 C         142.2390  143.9770  159.2513 C.ar    1  UNL1        0.0989
     17 C         140.1874  144.5472  162.4964 C.3     1  UNL1        0.1194
     18 C         138.7494  144.1570  162.6692 C.3     1  UNL1        0.0279
     19 C         138.1277  144.1695  164.0343 C.3     1  UNL1        0.0341
     20 C         138.9440  144.5720  165.2265 C.3     1  UNL1        0.1423
     21 O         140.3820  144.9622  165.0537 O.3     1  UNL1       -0.3518
     22 C         141.0037  144.9497  163.6887 C.3     1  UNL1        0.1647
     23 C         142.9357  140.9125  164.9848 C.ar    1  UNL1        0.0216
     24 C         142.7134  139.4896  165.4044 C.ar    1  UNL1        0.0064
     25 C         142.4147  139.1686  166.8388 C.ar    1  UNL1        0.0577
     26 C         142.3382  140.2705  167.8537 C.ar    1  UNL1        0.2249
     27 N         142.5604  141.6933  167.4341 N.ar    1  UNL1       -0.2101
     28 C         142.8592  142.0144  165.9997 C.ar    1  UNL1        0.1021
     29 O         142.0394  139.9495  169.2882 O.3     1  UNL1       -0.4602
     30 C         140.6171  139.8662  169.7576 C.3     1  UNL1        0.2085
     31 C         139.5169  140.4545  168.9249 C.3     1  UNL1        0.0647
     32 C         138.6753  139.5657  168.0579 C.3     1  UNL1        0.0759
     33 N         138.8714  139.5649  166.5709 N.3     1  UNL1       -0.2726
     34 C         139.1930  140.8438  165.8560 C.3     1  UNL1        0.0721
     35 C         139.3891  140.8429  164.3689 C.3     1  UNL1        0.0174
     36 C         139.2636  139.5632  163.5966 C.3     1  UNL1        0.0029
     37 C         138.9421  138.2842  164.3114 C.3     1  UNL1        0.0174
     38 C         138.7460  138.2851  165.7985 C.3     1  UNL1        0.0721
@<TRIPOS>BOND
     1     1     2    1
     2     2     3   ar
     3     3     4    2
     4     3     5   ar
     5    17     5    1
     6    17    18    1
     7    18    19    1
     8    19    20    1
     9    20    21    1
    10    21    22    1
    11     5     6   ar
    12     6     7   ar
    13     7     8   ar
    14     8     9   ar
    15     9    23    1
    16    23    24   ar
    17    24    25   ar
    18    25    26   ar
    19    26    29    1
    20    29    30    1
    21    30    31    1
    22    31    32    1
    23    32    33    1
    24    33    34    1
    25    34    35    1
    26    35    36    1
    27    36    37    1
    28    37    38    1
    29    26    27   ar
    30    27    28   ar
    31     9    10   ar
    32    10    11    1
    33    10    12   ar
    34    12    13   ar
    35    13    14   ar
    36    14    15   ar
    37    15    16   ar
    38    16     2   ar
    39    22    17    1
    40    16     6   ar
    41    13     7   ar
    42    28    23   ar
    43    38    33    1
@<TRIPOS>MOLECULE
*****
 38 43 0 0 0
SMALL
GASTEIGER

@<TRIPOS>ATOM
      1 C         142.0179  143.5722  155.9799 C.3     1  UNL1        0.1352
      2 N         141.7981  143.4725  157.4603 N.ar    1  UNL1       -0.2765
      3 C         140.5008  143.7045  158.1767 C.ar    1  UNL1        0.3317
      4 O         139.1954  144.0768  157.5383 O.2     1  UNL1       -0.2463
      5 N         140.7380  143.4987  159.6434 N.ar    1  UNL1       -0.2792
      6 C         142.1819  143.1396  159.8336 C.ar    1  UNL1        0.0826
      7 C         142.9848  142.8253  161.0610 C.ar    1  UNL1        0.0352
      8 C         142.3296  142.8415  162.4103 C.ar    1  UNL1        0.0053
      9 C         143.1325  142.5272  163.6377 C.ar    1  UNL1        0.0291
     10 C         144.5905  142.1966  163.5159 C.ar    1  UNL1        0.1416
     11 F         145.3934  141.8823  164.7434 F       1  UNL1       -0.2041
     12 C         145.2457  142.1804  162.1667 C.ar    1  UNL1        0.0488
     13 C         144.4429  142.4948  160.9392 C.ar    1  UNL1        0.0850
     14 N         145.0980  142.4786  159.5900 N.ar    1  UNL1       -0.2422
     15 C         144.2952  142.7929  158.3626 C.ar    1  UNL1        0.1175
     16 C         142.8371  143.1234  158.4844 C.ar    1  UNL1        0.0989
     17 C         139.7116  143.6292  160.7294 C.3     1  UNL1        0.1194
     18 C         139.7796  144.7778  161.6917 C.3     1  UNL1        0.0279
     19 C         138.7532  144.9083  162.7777 C.3     1  UNL1        0.0341
     20 C         137.6586  143.8902  162.9014 C.3     1  UNL1        0.1423
     21 O         137.5906  142.7415  161.9391 O.3     1  UNL1       -0.3518
     22 C         138.6170  142.6111  160.8531 C.3     1  UNL1        0.1647
     23 C         142.4773  142.5434  164.9870 C.ar    1  UNL1        0.0216
     24 C         141.0400  142.9520  165.1180 C.ar    1  UNL1        0.0064
     25 C         140.3848  142.9682  166.4672 C.ar    1  UNL1        0.0577
     26 C         141.1669  142.5758  167.6855 C.ar    1  UNL1        0.2249
     27 N         142.6042  142.1671  167.5545 N.ar    1  UNL1       -0.2101
     28 C         143.2594  142.1509  166.2053 C.ar    1  UNL1        0.1021
     29 O         140.5118  142.5920  169.0348 O.3     1  UNL1       -0.4602
     30 C         139.8057  141.3689  169.5404 C.3     1  UNL1        0.2085
     31 C         139.9625  140.0616  168.8219 C.3     1  UNL1        0.0647
     32 C         138.9599  139.6509  167.7845 C.3     1  UNL1        0.0759
     33 N         139.3410  139.6460  166.3338 N.3     1  UNL1       -0.2726
     34 C         138.3303  140.0233  165.2916 C.3     1  UNL1        0.0721
     35 C         138.7115  140.0184  163.8408 C.3     1  UNL1        0.0174
     36 C         140.1032  139.6361  163.4322 C.3     1  UNL1        0.0029
     37 C         141.1138  139.2588  164.4744 C.3     1  UNL1        0.0174
     38 C         140.7328  139.2637  165.9252 C.3     1  UNL1        0.0721
@<TRIPOS>BOND
     1     1     2    1
     2     2     3   ar
     3     3     4    2
     4     3     5   ar
     5    17     5    1
     6    17    18    1
     7    18    19    1
     8    19    20    1
     9    20    21    1
    10    21    22    1
    11     5     6   ar
    12     6     7   ar
    13     7     8   ar
    14     8     9   ar
    15     9    23    1
    16    23    24   ar
    17    24    25   ar
    18    25    26   ar
    19    26    29    1
    20    29    30    1
    21    30    31    1
    22    31    32    1
    23    32    33    1
    24    33    34    1
    25    34    35    1
    26    35    36    1
    27    36    37    1
    28    37    38    1
    29    26    27   ar
    30    27    28   ar
    31     9    10   ar
    32    10    11    1
    33    10    12   ar
    34    12    13   ar
    35    13    14   ar
    36    14    15   ar
    37    15    16   ar
    38    16     2   ar
    39    22    17    1
    40    16     6   ar
    41    13     7   ar
    42    28    23   ar
    43    38    33    1
@<TRIPOS>MOLECULE
*****
 38 43 0 0 0
SMALL
GASTEIGER

@<TRIPOS>ATOM
      1 C         140.1705  139.9059  170.5140 C.3     1  UNL1        0.1352
      2 N         140.2707  140.2627  169.0605 N.ar    1  UNL1       -0.2765
      3 C         139.3014  139.8664  167.9865 C.ar    1  UNL1        0.3317
      4 O         138.0617  139.0436  168.1774 O.2     1  UNL1       -0.2463
      5 N         139.7894  140.4372  166.6880 N.ar    1  UNL1       -0.2792
      6 C         141.0603  141.1863  166.9595 C.ar    1  UNL1        0.0826
      7 C         141.9851  141.9527  166.0610 C.ar    1  UNL1        0.0352
      8 C         141.6877  142.0605  164.5947 C.ar    1  UNL1        0.0053
      9 C         142.6125  142.8269  163.6962 C.ar    1  UNL1        0.0291
     10 C         143.8348  143.4855  164.2640 C.ar    1  UNL1        0.1416
     11 F         144.7596  144.2519  163.3654 F       1  UNL1       -0.2041
     12 C         144.1322  143.3777  165.7302 C.ar    1  UNL1        0.0488
     13 C         143.2074  142.6112  166.6287 C.ar    1  UNL1        0.0850
     14 N         143.5048  142.5034  168.0950 N.ar    1  UNL1       -0.2422
     15 C         142.5800  141.7371  168.9934 C.ar    1  UNL1        0.1175
     16 C         141.3577  141.0785  168.4257 C.ar    1  UNL1        0.0989
     17 C         139.1235  140.2855  165.3525 C.3     1  UNL1        0.1194
     18 C         138.3664  141.4354  164.7571 C.3     1  UNL1        0.0279
     19 C         137.7005  141.2837  163.4216 C.3     1  UNL1        0.0341
     20 C         137.7916  139.9822  162.6815 C.3     1  UNL1        0.1423
     21 O         138.5487  138.8323  163.2770 O.3     1  UNL1       -0.3518
     22 C         139.2146  138.9840  164.6125 C.3     1  UNL1        0.1647
     23 C         142.3151  142.9347  162.2299 C.ar    1  UNL1        0.0216
     24 C         140.9190  142.7106  161.7294 C.ar    1  UNL1        0.0064
     25 C         140.6215  142.8184  160.2631 C.ar    1  UNL1        0.0577
     26 C         141.7202  143.1504  159.2975 C.ar    1  UNL1        0.2249
     27 N         143.1164  143.3745  159.7980 N.ar    1  UNL1       -0.2101
     28 C         143.4138  143.2667  161.2642 C.ar    1  UNL1        0.1021
     29 O         141.4228  143.2582  157.8311 O.3     1  UNL1       -0.4602
     30 C         141.3257  142.0184  156.9924 C.3     1  UNL1        0.2085
     31 C         142.3526  140.9344  157.1346 C.3     1  UNL1        0.0647
     32 C         142.0209  139.6815  157.8897 C.3     1  UNL1        0.0759
     33 N         142.3713  139.5670  159.3437 N.3     1  UNL1       -0.2726
     34 C         143.7795  139.8137  159.7974 C.3     1  UNL1        0.0721
     35 C         144.1299  139.6992  161.2515 C.3     1  UNL1        0.0174
     36 C         143.0720  139.3381  162.2517 C.3     1  UNL1        0.0029
     37 C         141.6638  139.0914  161.7979 C.3     1  UNL1        0.0174
     38 C         141.3134  139.2058  160.3440 C.3     1  UNL1        0.0721
@<TRIPOS>BOND
     1     1     2    1
     2     2     3   ar
     3     3     4    2
     4     3     5   ar
     5    17     5    1
     6    17    18    1
     7    18    19    1
     8    19    20    1
     9    20    21    1
    10    21    22    1
    11     5     6   ar
    12     6     7   ar
    13     7     8   ar
    14     8     9   ar
    15     9    23    1
    16    23    24   ar
    17    24    25   ar
    18    25    26   ar
    19    26    29    1
    20    29    30    1
    21    30    31    1
    22    31    32    1
    23    32    33    1
    24    33    34    1
    25    34    35    1
    26    35    36    1
    27    36    37    1
    28    37    38    1
    29    26    27   ar
    30    27    28   ar
    31     9    10   ar
    32    10    11    1
    33    10    12   ar
    34    12    13   ar
    35    13    14   ar
    36    14    15   ar
    37    15    16   ar
    38    16     2   ar
    39    22    17    1
    40    16     6   ar
    41    13     7   ar
    42    28    23   ar
    43    38    33    1
@<TRIPOS>MOLECULE
*****
 38 43 0 0 0
SMALL
GASTEIGER

@<TRIPOS>ATOM
      1 C         139.6406  140.9091  170.1895 C.3     1  UNL1        0.1352
      2 N         140.0575  140.6897  168.7654 N.ar    1  UNL1       -0.2765
      3 C         139.3609  139.8124  167.7679 C.ar    1  UNL1        0.3317
      4 O         138.1250  139.0003  168.0193 O.2     1  UNL1       -0.2463
      5 N         140.1172  139.8897  166.4747 N.ar    1  UNL1       -0.2792
      6 C         141.2812  140.8148  166.6731 C.ar    1  UNL1        0.0826
      7 C         142.3699  141.2709  165.7475 C.ar    1  UNL1        0.0352
      8 C         142.4068  140.7764  164.3318 C.ar    1  UNL1        0.0053
      9 C         143.4955  141.2325  163.4062 C.ar    1  UNL1        0.0291
     10 C         144.5473  142.1830  163.8963 C.ar    1  UNL1        0.1416
     11 F         145.6361  142.6390  162.9707 F       1  UNL1       -0.2041
     12 C         144.5105  142.6774  165.3120 C.ar    1  UNL1        0.0488
     13 C         143.4217  142.2214  166.2376 C.ar    1  UNL1        0.0850
     14 N         143.3848  142.7158  167.6533 N.ar    1  UNL1       -0.2422
     15 C         142.2961  142.2598  168.5788 C.ar    1  UNL1        0.1175
     16 C         141.2443  141.3093  168.0887 C.ar    1  UNL1        0.0989
     17 C         139.7704  139.1686  165.2060 C.3     1  UNL1        0.1194
     18 C         140.6119  138.0158  164.7445 C.3     1  UNL1        0.0279
     19 C         140.2651  137.2946  163.4758 C.3     1  UNL1        0.0341
     20 C         139.0768  137.7261  162.6686 C.3     1  UNL1        0.1423
     21 O         138.2353  138.8789  163.1301 O.3     1  UNL1       -0.3518
     22 C         138.5821  139.6001  164.3988 C.3     1  UNL1        0.1647
     23 C         143.5324  140.7380  161.9905 C.ar    1  UNL1        0.0216
     24 C         143.5725  139.2648  161.7114 C.ar    1  UNL1        0.0064
     25 C         143.6094  138.7703  160.2958 C.ar    1  UNL1        0.0577
     26 C         143.6062  139.7491  159.1592 C.ar    1  UNL1        0.2249
     27 N         143.5660  141.2224  159.4382 N.ar    1  UNL1       -0.2101
     28 C         143.5291  141.7169  160.8539 C.ar    1  UNL1        0.1021
     29 O         143.6431  139.2547  157.7434 O.3     1  UNL1       -0.4602
     30 C         142.5594  138.3499  157.2365 C.3     1  UNL1        0.2085
     31 C         141.1858  138.4161  157.8356 C.3     1  UNL1        0.0647
     32 C         140.3238  139.6216  157.6038 C.3     1  UNL1        0.0759
     33 N         140.1866  140.6627  158.6749 N.3     1  UNL1       -0.2726
     34 C         140.2266  142.1184  158.3153 C.3     1  UNL1        0.0721
     35 C         140.0893  143.1595  159.3865 C.3     1  UNL1        0.0174
     36 C         139.9121  142.7449  160.8171 C.3     1  UNL1        0.0029
     37 C         139.8722  141.2891  161.1766 C.3     1  UNL1        0.0174
     38 C         140.0094  140.2480  160.1055 C.3     1  UNL1        0.0721
@<TRIPOS>BOND
     1     1     2    1
     2     2     3   ar
     3     3     4    2
     4     3     5   ar
     5    17     5    1
     6    17    18    1
     7    18    19    1
     8    19    20    1
     9    20    21    1
    10    21    22    1
    11     5     6   ar
    12     6     7   ar
    13     7     8   ar
    14     8     9   ar
    15     9    23    1
    16    23    24   ar
    17    24    25   ar
    18    25    26   ar
    19    26    29    1
    20    29    30    1
    21    30    31    1
    22    31    32    1
    23    32    33    1
    24    33    34    1
    25    34    35    1
    26    35    36    1
    27    36    37    1
    28    37    38    1
    29    26    27   ar
    30    27    28   ar
    31     9    10   ar
    32    10    11    1
    33    10    12   ar
    34    12    13   ar
    35    13    14   ar
    36    14    15   ar
    37    15    16   ar
    38    16     2   ar
    39    22    17    1
    40    16     6   ar
    41    13     7   ar
    42    28    23   ar
    43    38    33    1
