@<TRIPOS>MOLECULE
*****
 37 40 0 0 0
SMALL
GASTEIGER

@<TRIPOS>ATOM
      1 C         142.1661  140.5264  165.0647 C.ar    1  UNL1        0.0528
      2 C         141.6375  141.3259  163.9107 C.ar    1  UNL1        0.0167
      3 C         142.3501  141.2995  162.5911 C.ar    1  UNL1        0.0505
      4 C         143.5913  140.4735  162.4253 C.ar    1  UNL1        0.0170
      5 C         144.1198  139.6740  163.5792 C.ar    1  UNL1        0.0307
      6 C         143.4072  139.7005  164.8988 C.ar    1  UNL1        0.1402
      7 F         143.9358  138.9010  166.0527 F       1  UNL1       -0.2044
      8 N         138.8557  138.5287  164.1697 N.pl3   1  UNL1       -0.2456
      9 C         139.4842  139.2122  165.3478 C.2     1  UNL1        0.3505
     10 N         140.8251  139.8693  165.2062 N.2     1  UNL1       -0.0666
     11 C         141.4536  140.5528  166.3843 C.3     1  UNL1        0.2224
     12 C         142.7945  141.2099  166.2427 C.3     1  UNL1        0.1951
     13 O         143.4229  141.8933  167.4208 O.3     1  UNL1       -0.3485
     14 C         142.7103  141.9198  168.7405 C.3     1  UNL1        0.1508
     15 C         141.3694  141.2627  168.8821 C.3     1  UNL1        0.0373
     16 C         140.7410  140.5792  167.7040 C.3     1  UNL1        0.0601
     17 C         139.4000  139.9221  167.8456 C.3     1  UNL1        0.0837
     18 C         138.7716  139.2386  166.6675 C.3     1  UNL1        0.3553
     19 F         137.7132  138.9988  167.7029 F       1  UNL1       -0.1914
     20 F         137.7756  138.4718  165.8490 F       1  UNL1       -0.1914
     21 H         139.3234  138.5113  163.3035 H       1  UNL1        0.2883
     22 H         137.9756  138.0974  164.2626 H       1  UNL1        0.2883
     23 C         143.3388  142.6033  169.9186 C.3     1  UNL1        0.2225
     24 F         144.8257  142.7942  169.9696 F       1  UNL1       -0.2316
     25 N         141.8216  142.0989  161.4372 N.am    1  UNL1       -0.2791
     26 C         142.4301  143.4292  161.1051 C.2     1  UNL1        0.2688
     27 O         143.5672  143.9599  161.9269 O.2     1  UNL1       -0.2681
     28 H         141.0753  141.7506  160.8978 H       1  UNL1        0.1552
     29 C         141.9016  144.2286  159.9512 C.ar    1  UNL1        0.1541
     30 C         140.5373  144.8471  160.0297 C.ar    1  UNL1        0.1258
     31 N         140.0087  145.6466  158.8758 N.ar    1  UNL1       -0.2070
     32 C         140.8445  145.8276  157.6434 C.ar    1  UNL1        0.2469
     33 C         142.2088  145.2090  157.5649 C.ar    1  UNL1        0.1566
     34 N         142.7373  144.4096  158.7188 N.ar    1  UNL1       -0.2328
     35 O         140.3159  146.6270  156.4896 O.3     1  UNL1       -0.4265
     36 C         138.9272  147.1914  156.5418 C.3     1  UNL1        0.4044
     37 F         138.6803  148.5163  157.2005 F       1  UNL1       -0.1809
@<TRIPOS>BOND
     1     8     9    1
     2     9    10    2
     3    10    11    1
     4    11     1    1
     5     1     2   ar
     6     2     3   ar
     7     3    25    1
     8    25    26   am
     9    26    27    2
    10    26    29    1
    11    29    30   ar
    12    30    31   ar
    13    31    32   ar
    14    32    35    1
    15    35    36    1
    16    36    37    1
    17    32    33   ar
    18    33    34   ar
    19     3     4   ar
    20     4     5   ar
    21     5     6   ar
    22     6     7    1
    23    11    12    1
    24    12    13    1
    25    13    14    1
    26    14    23    1
    27    23    24    1
    28    14    15    1
    29    16    15    1
    30    16    17    1
    31    17    18    1
    32    18    19    1
    33    18    20    1
    34    18     9    1
    35    16    11    1
    36     6     1   ar
    37    34    29   ar
    38     8    21    1
    39     8    22    1
    40    25    28    1
@<TRIPOS>MOLECULE
*****
 37 40 0 0 0
SMALL
GASTEIGER

@<TRIPOS>ATOM
      1 C         139.8294  139.9330  165.3327 C.ar    1  UNL1        0.0528
      2 C         140.4785  139.6953  164.0014 C.ar    1  UNL1        0.0167
      3 C         140.2201  138.4181  163.2584 C.ar    1  UNL1        0.0505
      4 C         139.3125  137.3787  163.8467 C.ar    1  UNL1        0.0170
      5 C         138.6634  137.6165  165.1779 C.ar    1  UNL1        0.0307
      6 C         138.9219  138.8937  165.9208 C.ar    1  UNL1        0.1402
      7 F         138.2728  139.1315  167.2520 F       1  UNL1       -0.2044
      8 N         137.5219  142.4544  163.3155 N.pl3   1  UNL1       -0.2456
      9 C         138.4634  142.4653  164.4832 C.2     1  UNL1        0.3505
     10 N         139.1464  141.1992  164.9079 N.2     1  UNL1       -0.0666
     11 C         140.0879  141.2102  166.0756 C.3     1  UNL1        0.2224
     12 C         140.7709  139.9441  166.5003 C.3     1  UNL1        0.1951
     13 O         141.7123  139.9551  167.6680 O.3     1  UNL1       -0.3485
     14 C         141.9708  141.2323  168.4110 C.3     1  UNL1        0.1508
     15 C         141.2878  142.4984  167.9863 C.3     1  UNL1        0.0373
     16 C         140.3464  142.4874  166.8186 C.3     1  UNL1        0.0601
     17 C         139.6633  143.7535  166.3939 C.3     1  UNL1        0.0837
     18 C         138.7219  143.7425  165.2262 C.3     1  UNL1        0.3553
     19 F         138.6440  145.1905  165.6100 F       1  UNL1       -0.1914
     20 F         137.7533  144.2343  164.1918 F       1  UNL1       -0.1914
     21 H         137.3522  141.6161  162.8279 H       1  UNL1        0.2883
     22 H         137.0736  143.2854  163.0368 H       1  UNL1        0.2883
     23 C         142.9123  141.2433  169.5787 C.3     1  UNL1        0.2225
     24 F         144.0685  142.1986  169.6009 F       1  UNL1       -0.2316
     25 N         140.8691  138.1803  161.9272 N.am    1  UNL1       -0.2791
     26 C         140.2543  138.7458  160.6813 C.2     1  UNL1        0.2688
     27 O         138.9904  139.5491  160.7666 O.2     1  UNL1       -0.2681
     28 H         141.6987  137.6531  161.8712 H       1  UNL1        0.1552
     29 C         140.9034  138.5080  159.3501 C.ar    1  UNL1        0.1541
     30 C         142.3634  138.1718  159.2770 C.ar    1  UNL1        0.1258
     31 N         143.0125  137.9340  157.9457 N.ar    1  UNL1       -0.2070
     32 C         142.2016  138.0324  156.6877 C.ar    1  UNL1        0.2469
     33 C         140.7416  138.3686  156.7608 C.ar    1  UNL1        0.1566
     34 N         140.0925  138.6064  158.0920 N.ar    1  UNL1       -0.2328
     35 O         142.8507  137.7946  155.3565 O.3     1  UNL1       -0.4265
     36 C         144.2648  137.2989  155.2895 C.3     1  UNL1        0.4044
     37 F         144.5494  135.8288  155.3799 F       1  UNL1       -0.1809
@<TRIPOS>BOND
     1     8     9    1
     2     9    10    2
     3    10    11    1
     4    11     1    1
     5     1     2   ar
     6     2     3   ar
     7     3    25    1
     8    25    26   am
     9    26    27    2
    10    26    29    1
    11    29    30   ar
    12    30    31   ar
    13    31    32   ar
    14    32    35    1
    15    35    36    1
    16    36    37    1
    17    32    33   ar
    18    33    34   ar
    19     3     4   ar
    20     4     5   ar
    21     5     6   ar
    22     6     7    1
    23    11    12    1
    24    12    13    1
    25    13    14    1
    26    14    23    1
    27    23    24    1
    28    14    15    1
    29    16    15    1
    30    16    17    1
    31    17    18    1
    32    18    19    1
    33    18    20    1
    34    18     9    1
    35    16    11    1
    36     6     1   ar
    37    34    29   ar
    38     8    21    1
    39     8    22    1
    40    25    28    1
@<TRIPOS>MOLECULE
*****
 37 40 0 0 0
SMALL
GASTEIGER

@<TRIPOS>ATOM
      1 C         141.9938  142.1600  165.1578 C.ar    1  UNL1        0.0528
      2 C         141.5986  142.8617  163.8922 C.ar    1  UNL1        0.0167
      3 C         142.4603  143.9597  163.3429 C.ar    1  UNL1        0.0505
      4 C         143.7173  144.3561  164.0591 C.ar    1  UNL1        0.0170
      5 C         144.1125  143.6544  165.3246 C.ar    1  UNL1        0.0307
      6 C         143.2508  142.5564  165.8739 C.ar    1  UNL1        0.1402
      7 F         143.6460  141.8547  167.1394 F       1  UNL1       -0.2044
      8 N         141.8586  139.6893  162.0549 N.pl3   1  UNL1       -0.2456
      9 C         141.3292  139.7808  163.4554 C.2     1  UNL1        0.3505
     10 N         141.6615  140.9704  164.3065 N.2     1  UNL1       -0.0666
     11 C         141.1321  141.0620  165.7071 C.3     1  UNL1        0.2224
     12 C         141.4644  142.2515  166.5582 C.3     1  UNL1        0.1951
     13 O         140.9350  142.3431  167.9586 O.3     1  UNL1       -0.3485
     14 C         140.0733  141.2451  168.5080 C.3     1  UNL1        0.1508
     15 C         139.7409  140.0555  167.6568 C.3     1  UNL1        0.0373
     16 C         140.2704  139.9640  166.2564 C.3     1  UNL1        0.0601
     17 C         139.9381  138.7744  165.4052 C.3     1  UNL1        0.0837
     18 C         140.4675  138.6828  164.0047 C.3     1  UNL1        0.3553
     19 F         139.6967  137.3981  164.0763 F       1  UNL1       -0.1914
     20 F         140.7292  138.1451  162.6291 F       1  UNL1       -0.1914
     21 H         142.4242  140.4099  161.6943 H       1  UNL1        0.2883
     22 H         141.6405  138.9085  161.4963 H       1  UNL1        0.2883
     23 C         139.5438  141.3366  169.9085 C.3     1  UNL1        0.2225
     24 F         138.1911  140.7780  170.2369 F       1  UNL1       -0.2316
     25 N         142.0651  144.6613  162.0774 N.am    1  UNL1       -0.2791
     26 C         142.0814  143.9211  160.7729 C.2     1  UNL1        0.2688
     27 O         142.4930  142.4792  160.7339 O.2     1  UNL1       -0.2681
     28 H         141.7950  145.6077  162.1031 H       1  UNL1        0.1552
     29 C         141.6862  144.6227  159.5074 C.ar    1  UNL1        0.1541
     30 C         140.3533  145.3041  159.4125 C.ar    1  UNL1        0.1258
     31 N         139.9580  146.0058  158.1470 N.ar    1  UNL1       -0.2070
     32 C         140.8957  146.0261  156.9764 C.ar    1  UNL1        0.2469
     33 C         142.2287  145.3446  157.0713 C.ar    1  UNL1        0.1566
     34 N         142.6239  144.6430  158.3368 N.ar    1  UNL1       -0.2328
     35 O         140.5005  146.7277  155.7109 O.3     1  UNL1       -0.4265
     36 C         139.2257  147.5163  155.6574 C.3     1  UNL1        0.4044
     37 F         138.9913  148.4881  154.5390 F       1  UNL1       -0.1809
@<TRIPOS>BOND
     1     8     9    1
     2     9    10    2
     3    10    11    1
     4    11     1    1
     5     1     2   ar
     6     2     3   ar
     7     3    25    1
     8    25    26   am
     9    26    27    2
    10    26    29    1
    11    29    30   ar
    12    30    31   ar
    13    31    32   ar
    14    32    35    1
    15    35    36    1
    16    36    37    1
    17    32    33   ar
    18    33    34   ar
    19     3     4   ar
    20     4     5   ar
    21     5     6   ar
    22     6     7    1
    23    11    12    1
    24    12    13    1
    25    13    14    1
    26    14    23    1
    27    23    24    1
    28    14    15    1
    29    16    15    1
    30    16    17    1
    31    17    18    1
    32    18    19    1
    33    18    20    1
    34    18     9    1
    35    16    11    1
    36     6     1   ar
    37    34    29   ar
    38     8    21    1
    39     8    22    1
    40    25    28    1
@<TRIPOS>MOLECULE
*****
 37 40 0 0 0
SMALL
GASTEIGER

@<TRIPOS>ATOM
      1 C         142.2446  142.8826  163.3313 C.ar    1  UNL1        0.0528
      2 C         141.8331  141.9935  162.1954 C.ar    1  UNL1        0.0167
      3 C         142.7170  141.8575  160.9912 C.ar    1  UNL1        0.0505
      4 C         144.0125  142.6106  160.9228 C.ar    1  UNL1        0.0170
      5 C         144.4240  143.4997  162.0587 C.ar    1  UNL1        0.0307
      6 C         143.5401  143.6357  163.2629 C.ar    1  UNL1        0.1402
      7 F         143.9516  144.5247  164.3987 F       1  UNL1       -0.2044
      8 N         138.9861  144.4512  161.6966 N.pl3   1  UNL1       -0.2456
      9 C         139.4830  144.0190  163.0443 C.2     1  UNL1        0.3505
     10 N         140.8638  143.4508  163.1878 N.2     1  UNL1       -0.0666
     11 C         141.3607  143.0186  164.5355 C.3     1  UNL1        0.2224
     12 C         142.7415  142.4504  164.6790 C.3     1  UNL1        0.1951
     13 O         143.2383  142.0182  166.0267 O.3     1  UNL1       -0.3485
     14 C         142.3544  142.1542  167.2309 C.3     1  UNL1        0.1508
     15 C         140.9736  142.7224  167.0875 C.3     1  UNL1        0.0373
     16 C         140.4768  143.1546  165.7398 C.3     1  UNL1        0.0601
     17 C         139.0960  143.7228  165.5963 C.3     1  UNL1        0.0837
     18 C         138.5991  144.1550  164.2486 C.3     1  UNL1        0.3553
     19 F         137.3978  144.4803  165.0857 F       1  UNL1       -0.1914
     20 F         137.6850  144.7001  163.1916 F       1  UNL1       -0.1914
     21 H         139.5662  144.3619  160.9062 H       1  UNL1        0.2883
     22 H         138.0799  144.8241  161.6024 H       1  UNL1        0.2883
     23 C         142.8513  141.7220  168.5787 C.3     1  UNL1        0.2225
     24 F         144.0025  142.4394  169.2190 F       1  UNL1       -0.2316
     25 N         142.3055  140.9684  159.8553 N.am    1  UNL1       -0.2791
     26 C         142.4130  139.4785  159.9921 C.2     1  UNL1        0.2688
     27 O         142.9321  138.8777  161.2647 O.2     1  UNL1       -0.2681
     28 H         141.9648  141.3627  159.0201 H       1  UNL1        0.1552
     29 C         142.0015  138.5894  158.8562 C.ar    1  UNL1        0.1541
     30 C         140.5905  138.6257  158.3487 C.ar    1  UNL1        0.1258
     31 N         140.1789  137.7366  157.2128 N.ar    1  UNL1       -0.2070
     32 C         141.1785  136.8113  156.5845 C.ar    1  UNL1        0.2469
     33 C         142.5896  136.7751  157.0921 C.ar    1  UNL1        0.1566
     34 N         143.0011  137.6641  158.2279 N.ar    1  UNL1       -0.2328
     35 O         140.7670  135.9222  155.4487 O.3     1  UNL1       -0.4265
     36 C         141.6030  134.7300  155.0886 C.3     1  UNL1        0.4044
     37 F         141.6614  133.5486  156.0111 F       1  UNL1       -0.1809
@<TRIPOS>BOND
     1     8     9    1
     2     9    10    2
     3    10    11    1
     4    11     1    1
     5     1     2   ar
     6     2     3   ar
     7     3    25    1
     8    25    26   am
     9    26    27    2
    10    26    29    1
    11    29    30   ar
    12    30    31   ar
    13    31    32   ar
    14    32    35    1
    15    35    36    1
    16    36    37    1
    17    32    33   ar
    18    33    34   ar
    19     3     4   ar
    20     4     5   ar
    21     5     6   ar
    22     6     7    1
    23    11    12    1
    24    12    13    1
    25    13    14    1
    26    14    23    1
    27    23    24    1
    28    14    15    1
    29    16    15    1
    30    16    17    1
    31    17    18    1
    32    18    19    1
    33    18    20    1
    34    18     9    1
    35    16    11    1
    36     6     1   ar
    37    34    29   ar
    38     8    21    1
    39     8    22    1
    40    25    28    1
@<TRIPOS>MOLECULE
*****
 37 40 0 0 0
SMALL
GASTEIGER

@<TRIPOS>ATOM
      1 C         140.3479  142.4298  164.7050 C.ar    1  UNL1        0.0528
      2 C         141.3237  142.1396  163.6034 C.ar    1  UNL1        0.0167
      3 C         141.6963  143.2169  162.6284 C.ar    1  UNL1        0.0505
      4 C         141.0930  144.5844  162.7551 C.ar    1  UNL1        0.0170
      5 C         140.1172  144.8746  163.8567 C.ar    1  UNL1        0.0307
      6 C         139.7447  143.7973  164.8317 C.ar    1  UNL1        0.1402
      7 F         138.7689  144.0874  165.9333 F       1  UNL1       -0.2044
      8 N         139.0655  139.5971  162.2389 N.pl3   1  UNL1       -0.2456
      9 C         139.2446  139.8231  163.7109 C.2     1  UNL1        0.3505
     10 N         139.7962  141.1264  164.2080 N.2     1  UNL1       -0.0666
     11 C         139.9753  141.3525  165.6800 C.3     1  UNL1        0.2224
     12 C         140.5269  142.6558  166.1770 C.3     1  UNL1        0.1951
     13 O         140.7060  142.8818  167.6490 O.3     1  UNL1       -0.3485
     14 C         140.3334  141.8044  168.6240 C.3     1  UNL1        0.1508
     15 C         139.7818  140.5011  168.1270 C.3     1  UNL1        0.0373
     16 C         139.6027  140.2752  166.6550 C.3     1  UNL1        0.0601
     17 C         139.0511  138.9718  166.1579 C.3     1  UNL1        0.0837
     18 C         138.8720  138.7458  164.6859 C.3     1  UNL1        0.3553
     19 F         138.3777  137.4315  165.2133 F       1  UNL1       -0.1914
     20 F         138.5213  138.0634  163.3970 F       1  UNL1       -0.1914
     21 H         139.3101  140.3041  161.5989 H       1  UNL1        0.2883
     22 H         138.7035  138.7417  161.9127 H       1  UNL1        0.2883
     23 C         140.5125  142.0305  170.0961 C.3     1  UNL1        0.2225
     24 F         139.6987  143.0765  170.7987 F       1  UNL1       -0.2316
     25 N         142.6721  142.9267  161.5268 N.am    1  UNL1       -0.2791
     26 C         142.2975  141.9837  160.4221 C.2     1  UNL1        0.2688
     27 O         140.9470  141.3308  160.4190 O.2     1  UNL1       -0.2681
     28 H         143.5585  143.3552  161.5289 H       1  UNL1        0.1552
     29 C         143.2733  141.6935  159.3205 C.ar    1  UNL1        0.1541
     30 C         143.4037  140.2996  158.7820 C.ar    1  UNL1        0.1258
     31 N         144.3795  140.0094  157.6804 N.ar    1  UNL1       -0.2070
     32 C         145.2249  141.1131  157.1172 C.ar    1  UNL1        0.2469
     33 C         145.0944  142.5071  157.6557 C.ar    1  UNL1        0.1566
     34 N         144.1186  142.7972  158.7573 N.ar    1  UNL1       -0.2328
     35 O         146.2007  140.8230  156.0156 O.3     1  UNL1       -0.4265
     36 C         147.2063  141.8602  155.6120 C.3     1  UNL1        0.4044
     37 F         148.6238  141.7572  156.0917 F       1  UNL1       -0.1809
@<TRIPOS>BOND
     1     8     9    1
     2     9    10    2
     3    10    11    1
     4    11     1    1
     5     1     2   ar
     6     2     3   ar
     7     3    25    1
     8    25    26   am
     9    26    27    2
    10    26    29    1
    11    29    30   ar
    12    30    31   ar
    13    31    32   ar
    14    32    35    1
    15    35    36    1
    16    36    37    1
    17    32    33   ar
    18    33    34   ar
    19     3     4   ar
    20     4     5   ar
    21     5     6   ar
    22     6     7    1
    23    11    12    1
    24    12    13    1
    25    13    14    1
    26    14    23    1
    27    23    24    1
    28    14    15    1
    29    16    15    1
    30    16    17    1
    31    17    18    1
    32    18    19    1
    33    18    20    1
    34    18     9    1
    35    16    11    1
    36     6     1   ar
    37    34    29   ar
    38     8    21    1
    39     8    22    1
    40    25    28    1
@<TRIPOS>MOLECULE
*****
 37 40 0 0 0
SMALL
GASTEIGER

@<TRIPOS>ATOM
      1 C         139.9673  142.9322  164.7620 C.ar    1  UNL1        0.0528
      2 C         139.7365  142.2720  163.4349 C.ar    1  UNL1        0.0167
      3 C         138.5241  142.6219  162.6240 C.ar    1  UNL1        0.0505
      4 C         137.5425  143.6320  163.1401 C.ar    1  UNL1        0.0170
      5 C         137.7733  144.2921  164.4671 C.ar    1  UNL1        0.0307
      6 C         138.9858  143.9422  165.2780 C.ar    1  UNL1        0.1402
      7 F         139.2166  144.6023  166.6050 F       1  UNL1       -0.2044
      8 N         142.7777  144.9510  162.8186 N.pl3   1  UNL1       -0.2456
      9 C         142.6492  144.0448  164.0070 C.2     1  UNL1        0.3505
     10 N         141.3083  143.4885  164.3845 N.2     1  UNL1       -0.0666
     11 C         141.1797  142.5822  165.5729 C.3     1  UNL1        0.2224
     12 C         139.8388  142.0260  165.9503 C.3     1  UNL1        0.1951
     13 O         139.7104  141.1198  167.1387 O.3     1  UNL1       -0.3485
     14 C         140.9228  140.7699  167.9496 C.3     1  UNL1        0.1508
     15 C         142.2637  141.3261  167.5722 C.3     1  UNL1        0.0373
     16 C         142.3922  142.2323  166.3838 C.3     1  UNL1        0.0601
     17 C         143.7331  142.7886  166.0063 C.3     1  UNL1        0.0837
     18 C         143.8616  143.6948  164.8179 C.3     1  UNL1        0.3553
     19 F         145.2910  143.6548  165.2708 F       1  UNL1       -0.1914
     20 F         144.4865  144.5871  163.7868 F       1  UNL1       -0.1914
     21 H         141.9820  145.1807  162.2863 H       1  UNL1        0.2883
     22 H         143.6578  145.3161  162.5709 H       1  UNL1        0.2883
     23 C         140.7942  139.8636  169.1381 C.3     1  UNL1        0.2225
     24 F         139.6255  140.0066  170.0673 F       1  UNL1       -0.2316
     25 N         138.2932  141.9619  161.2970 N.am    1  UNL1       -0.2791
     26 C         138.6818  142.6665  160.0311 C.2     1  UNL1        0.2688
     27 O         139.3012  144.0313  160.0922 O.2     1  UNL1       -0.2681
     28 H         137.8867  141.0661  161.2569 H       1  UNL1        0.1552
     29 C         138.4509  142.0065  158.7041 C.ar    1  UNL1        0.1541
     30 C         138.2140  140.5270  158.6335 C.ar    1  UNL1        0.1258
     31 N         137.9832  139.8668  157.3065 N.ar    1  UNL1       -0.2070
     32 C         137.9892  140.6862  156.0500 C.ar    1  UNL1        0.2469
     33 C         138.2261  142.1658  156.1207 C.ar    1  UNL1        0.1566
     34 N         138.4570  142.8258  157.4476 N.ar    1  UNL1       -0.2328
     35 O         137.7584  140.0261  154.7230 O.3     1  UNL1       -0.4265
     36 C         136.3638  139.6879  154.2862 C.3     1  UNL1        0.4044
     37 F         135.7434  138.3861  154.6991 F       1  UNL1       -0.1809
@<TRIPOS>BOND
     1     8     9    1
     2     9    10    2
     3    10    11    1
     4    11     1    1
     5     1     2   ar
     6     2     3   ar
     7     3    25    1
     8    25    26   am
     9    26    27    2
    10    26    29    1
    11    29    30   ar
    12    30    31   ar
    13    31    32   ar
    14    32    35    1
    15    35    36    1
    16    36    37    1
    17    32    33   ar
    18    33    34   ar
    19     3     4   ar
    20     4     5   ar
    21     5     6   ar
    22     6     7    1
    23    11    12    1
    24    12    13    1
    25    13    14    1
    26    14    23    1
    27    23    24    1
    28    14    15    1
    29    16    15    1
    30    16    17    1
    31    17    18    1
    32    18    19    1
    33    18    20    1
    34    18     9    1
    35    16    11    1
    36     6     1   ar
    37    34    29   ar
    38     8    21    1
    39     8    22    1
    40    25    28    1
@<TRIPOS>MOLECULE
*****
 37 40 0 0 0
SMALL
GASTEIGER

@<TRIPOS>ATOM
      1 C         140.1521  142.4285  164.0844 C.ar    1  UNL1        0.0528
      2 C         140.1699  142.8064  162.6328 C.ar    1  UNL1        0.0167
      3 C         139.6950  144.1634  162.2052 C.ar    1  UNL1        0.0505
      4 C         139.2022  145.1426  163.2291 C.ar    1  UNL1        0.0170
      5 C         139.1844  144.7648  164.6806 C.ar    1  UNL1        0.0307
      6 C         139.6593  143.4077  165.1083 C.ar    1  UNL1        0.1402
      7 F         139.6415  143.0299  166.5598 F       1  UNL1       -0.2044
      8 N         143.9088  142.5118  162.8072 N.pl3   1  UNL1       -0.2456
      9 C         142.9731  141.5794  163.5181 C.2     1  UNL1        0.3505
     10 N         141.5627  142.0040  163.8012 N.2     1  UNL1       -0.0666
     11 C         140.6270  141.0715  164.5121 C.3     1  UNL1        0.2224
     12 C         139.2166  141.4961  164.7952 C.3     1  UNL1        0.1951
     13 O         138.2811  140.5637  165.5061 O.3     1  UNL1       -0.3485
     14 C         138.7560  139.2066  165.9337 C.3     1  UNL1        0.1508
     15 C         140.1665  138.7820  165.6505 C.3     1  UNL1        0.0373
     16 C         141.1020  139.7145  164.9397 C.3     1  UNL1        0.0601
     17 C         142.5126  139.2899  164.6565 C.3     1  UNL1        0.0837
     18 C         143.4481  140.2223  163.9457 C.3     1  UNL1        0.3553
     19 F         144.3576  139.0475  164.1513 F       1  UNL1       -0.1914
     20 F         144.6995  140.7468  163.3063 F       1  UNL1       -0.1914
     21 H         143.5970  143.4025  162.5265 H       1  UNL1        0.2883
     22 H         144.8345  142.2331  162.6214 H       1  UNL1        0.2883
     23 C         137.8204  138.2742  166.6445 C.3     1  UNL1        0.2225
     24 F         137.8426  136.8073  166.3322 F       1  UNL1       -0.2316
     25 N         139.7128  144.5412  160.7537 N.am    1  UNL1       -0.2791
     26 C         141.0173  144.8172  160.0665 C.2     1  UNL1        0.2688
     27 O         142.3039  144.7154  160.8308 O.2     1  UNL1       -0.2681
     28 H         138.8683  144.6081  160.2521 H       1  UNL1        0.1552
     29 C         141.0351  145.1951  158.6150 C.ar    1  UNL1        0.1541
     30 C         139.7911  145.7195  157.9613 C.ar    1  UNL1        0.1258
     31 N         139.8089  146.0974  156.5097 N.ar    1  UNL1       -0.2070
     32 C         141.0707  145.9508  155.7119 C.ar    1  UNL1        0.2469
     33 C         142.3147  145.4263  156.3658 C.ar    1  UNL1        0.1566
     34 N         142.2969  145.0485  157.8172 N.ar    1  UNL1       -0.2328
     35 O         141.0885  146.3286  154.2604 O.3     1  UNL1       -0.4265
     36 C         140.4339  147.6003  153.8084 C.3     1  UNL1        0.4044
     37 F         140.4475  148.8081  154.6979 F       1  UNL1       -0.1809
@<TRIPOS>BOND
     1     8     9    1
     2     9    10    2
     3    10    11    1
     4    11     1    1
     5     1     2   ar
     6     2     3   ar
     7     3    25    1
     8    25    26   am
     9    26    27    2
    10    26    29    1
    11    29    30   ar
    12    30    31   ar
    13    31    32   ar
    14    32    35    1
    15    35    36    1
    16    36    37    1
    17    32    33   ar
    18    33    34   ar
    19     3     4   ar
    20     4     5   ar
    21     5     6   ar
    22     6     7    1
    23    11    12    1
    24    12    13    1
    25    13    14    1
    26    14    23    1
    27    23    24    1
    28    14    15    1
    29    16    15    1
    30    16    17    1
    31    17    18    1
    32    18    19    1
    33    18    20    1
    34    18     9    1
    35    16    11    1
    36     6     1   ar
    37    34    29   ar
    38     8    21    1
    39     8    22    1
    40    25    28    1
@<TRIPOS>MOLECULE
*****
 37 40 0 0 0
SMALL
GASTEIGER

@<TRIPOS>ATOM
      1 C         141.2956  143.2070  163.2544 C.ar    1  UNL1        0.0528
      2 C         140.3174  142.7004  162.2363 C.ar    1  UNL1        0.0167
      3 C         139.6246  143.6631  161.3180 C.ar    1  UNL1        0.0505
      4 C         139.9099  145.1324  161.4179 C.ar    1  UNL1        0.0170
      5 C         140.8881  145.6388  162.4360 C.ar    1  UNL1        0.0307
      6 C         141.5810  144.6761  163.3543 C.ar    1  UNL1        0.1402
      7 F         142.5592  145.1826  164.3724 F       1  UNL1       -0.2044
      8 N         144.9461  143.1804  161.6974 N.pl3   1  UNL1       -0.2456
      9 C         144.1911  142.5475  162.8286 C.2     1  UNL1        0.3505
     10 N         142.7434  142.8772  163.0415 N.2     1  UNL1       -0.0666
     11 C         141.9885  142.2443  164.1727 C.3     1  UNL1        0.2224
     12 C         140.5408  142.5740  164.3856 C.3     1  UNL1        0.1951
     13 O         139.7859  141.9411  165.5167 O.3     1  UNL1       -0.3485
     14 C         140.4788  140.9784  166.4349 C.3     1  UNL1        0.1508
     15 C         141.9265  140.6486  166.2221 C.3     1  UNL1        0.0373
     16 C         142.6813  141.2816  165.0909 C.3     1  UNL1        0.0601
     17 C         144.1291  140.9518  164.8780 C.3     1  UNL1        0.0837
     18 C         144.8840  141.5848  163.7468 C.3     1  UNL1        0.3553
     19 F         145.9699  140.7400  164.3443 F       1  UNL1       -0.1914
     20 F         146.0160  141.9244  162.8232 F       1  UNL1       -0.1914
     21 H         144.4914  143.8123  161.0947 H       1  UNL1        0.2883
     22 H         145.8963  142.9640  161.5577 H       1  UNL1        0.2883
     23 C         139.7238  140.3454  167.5661 C.3     1  UNL1        0.2225
     24 F         138.5507  139.4556  167.2799 F       1  UNL1       -0.2316
     25 N         138.6464  143.1566  160.2999 N.am    1  UNL1       -0.2791
     26 C         139.1139  142.8132  158.9166 C.2     1  UNL1        0.2688
     27 O         140.5596  142.9763  158.5514 O.2     1  UNL1       -0.2681
     28 H         137.6975  143.0495  160.5396 H       1  UNL1        0.1552
     29 C         138.1357  142.3067  157.8985 C.ar    1  UNL1        0.1541
     30 C         137.5855  140.9161  158.0140 C.ar    1  UNL1        0.1258
     31 N         136.6072  140.4095  156.9959 N.ar    1  UNL1       -0.2070
     32 C         136.1793  141.2936  155.8622 C.ar    1  UNL1        0.2469
     33 C         136.7295  142.6843  155.7467 C.ar    1  UNL1        0.1566
     34 N         137.7077  143.1908  156.7648 N.ar    1  UNL1       -0.2328
     35 O         135.2011  140.7871  154.8442 O.3     1  UNL1       -0.4265
     36 C         134.0894  139.8713  155.2629 C.3     1  UNL1        0.4044
     37 F         132.7308  140.4305  155.5659 F       1  UNL1       -0.1809
@<TRIPOS>BOND
     1     8     9    1
     2     9    10    2
     3    10    11    1
     4    11     1    1
     5     1     2   ar
     6     2     3   ar
     7     3    25    1
     8    25    26   am
     9    26    27    2
    10    26    29    1
    11    29    30   ar
    12    30    31   ar
    13    31    32   ar
    14    32    35    1
    15    35    36    1
    16    36    37    1
    17    32    33   ar
    18    33    34   ar
    19     3     4   ar
    20     4     5   ar
    21     5     6   ar
    22     6     7    1
    23    11    12    1
    24    12    13    1
    25    13    14    1
    26    14    23    1
    27    23    24    1
    28    14    15    1
    29    16    15    1
    30    16    17    1
    31    17    18    1
    32    18    19    1
    33    18    20    1
    34    18     9    1
    35    16    11    1
    36     6     1   ar
    37    34    29   ar
    38     8    21    1
    39     8    22    1
    40    25    28    1
@<TRIPOS>MOLECULE
*****
 37 40 0 0 0
SMALL
GASTEIGER

@<TRIPOS>ATOM
      1 C         140.2096  141.9723  163.8031 C.ar    1  UNL1        0.0528
      2 C         139.9614  141.4158  162.4324 C.ar    1  UNL1        0.0167
      3 C         138.5768  141.4327  161.8555 C.ar    1  UNL1        0.0505
      4 C         137.4405  142.0062  162.6493 C.ar    1  UNL1        0.0170
      5 C         137.6888  142.5627  164.0200 C.ar    1  UNL1        0.0307
      6 C         139.0733  142.5457  164.5969 C.ar    1  UNL1        0.1402
      7 F         139.3216  143.1022  165.9675 F       1  UNL1       -0.2044
      8 N         141.3012  145.7468  163.2444 N.pl3   1  UNL1       -0.2456
      9 C         141.8604  144.4773  163.8153 C.2     1  UNL1        0.3505
     10 N         141.0350  143.2248  163.8092 N.2     1  UNL1       -0.0666
     11 C         141.5941  141.9553  164.3801 C.3     1  UNL1        0.2224
     12 C         140.7687  140.7029  164.3740 C.3     1  UNL1        0.1951
     13 O         141.3279  139.4334  164.9448 O.3     1  UNL1       -0.3485
     14 C         142.7124  139.4165  165.5217 C.3     1  UNL1        0.1508
     15 C         143.5378  140.6689  165.5278 C.3     1  UNL1        0.0373
     16 C         142.9786  141.9383  164.9570 C.3     1  UNL1        0.0601
     17 C         143.8040  143.1909  164.9630 C.3     1  UNL1        0.0837
     18 C         143.2449  144.4603  164.3922 C.3     1  UNL1        0.3553
     19 F         144.5984  144.9423  164.8227 F       1  UNL1       -0.1914
     20 F         143.1558  145.8971  163.9709 F       1  UNL1       -0.1914
     21 H         140.3925  145.7579  162.8658 H       1  UNL1        0.2883
     22 H         141.8430  146.5688  163.2484 H       1  UNL1        0.2883
     23 C         143.2715  138.1470  166.0926 C.3     1  UNL1        0.2225
     24 F         144.7472  138.0164  166.3276 F       1  UNL1       -0.2316
     25 N         138.3286  140.8762  160.4849 N.am    1  UNL1       -0.2791
     26 C         138.4356  141.7673  159.2829 C.2     1  UNL1        0.2688
     27 O         138.7909  143.2148  159.4517 O.2     1  UNL1       -0.2681
     28 H         138.0954  139.9262  160.3742 H       1  UNL1        0.1552
     29 C         138.1874  141.2108  157.9123 C.ar    1  UNL1        0.1541
     30 C         138.8998  139.9682  157.4671 C.ar    1  UNL1        0.1258
     31 N         138.6515  139.4117  156.0964 N.ar    1  UNL1       -0.2070
     32 C         137.6908  140.0978  155.1710 C.ar    1  UNL1        0.2469
     33 C         136.9784  141.3405  155.6164 C.ar    1  UNL1        0.1566
     34 N         137.2267  141.8969  156.9870 N.ar    1  UNL1       -0.2328
     35 O         137.4426  139.5413  153.8004 O.3     1  UNL1       -0.4265
     36 C         136.9491  138.1339  153.6405 C.3     1  UNL1        0.4044
     37 F         136.0806  137.5189  154.6977 F       1  UNL1       -0.1809
@<TRIPOS>BOND
     1     8     9    1
     2     9    10    2
     3    10    11    1
     4    11     1    1
     5     1     2   ar
     6     2     3   ar
     7     3    25    1
     8    25    26   am
     9    26    27    2
    10    26    29    1
    11    29    30   ar
    12    30    31   ar
    13    31    32   ar
    14    32    35    1
    15    35    36    1
    16    36    37    1
    17    32    33   ar
    18    33    34   ar
    19     3     4   ar
    20     4     5   ar
    21     5     6   ar
    22     6     7    1
    23    11    12    1
    24    12    13    1
    25    13    14    1
    26    14    23    1
    27    23    24    1
    28    14    15    1
    29    16    15    1
    30    16    17    1
    31    17    18    1
    32    18    19    1
    33    18    20    1
    34    18     9    1
    35    16    11    1
    36     6     1   ar
    37    34    29   ar
    38     8    21    1
    39     8    22    1
    40    25    28    1
