@<TRIPOS>MOLECULE
*****
 25 28 0 0 0
SMALL
GASTEIGER

@<TRIPOS>ATOM
      1 C         143.2578  143.5366  164.5037 C.ar    1  UNL1        0.1386
      2 C         143.8865  142.8661  165.6891 C.ar    1  UNL1        0.0369
      3 C         143.0218  142.2303  166.7370 C.ar    1  UNL1        0.0043
      4 C         141.5285  142.2649  166.5995 C.ar    1  UNL1        0.0152
      5 C         140.8999  142.9354  165.4141 C.ar    1  UNL1        0.0043
      6 C         141.7645  143.5712  164.3662 C.ar    1  UNL1        0.0369
      7 C         140.6639  141.6291  167.6474 C.2     1  UNL1        0.0763
      8 N         140.0408  140.2885  167.3935 N.2     1  UNL1       -0.1836
      9 N         139.1762  139.6526  168.4414 N.am    1  UNL1       -0.2062
     10 C         138.9346  140.3574  169.7433 C.2     1  UNL1        0.2410
     11 O         138.0700  139.7216  170.7912 O.2     1  UNL1       -0.2734
     12 C         139.5577  141.6981  169.9973 C.3     1  UNL1        0.0841
     13 C         140.1807  143.0387  170.2512 C.3     1  UNL1        0.0160
     14 C         140.4223  142.3339  168.9493 C.3     1  UNL1        0.0509
     15 H         138.7673  138.7727  168.2747 H       1  UNL1        0.1772
     16 O         144.1224  144.1724  163.4557 O.3     1  UNL1       -0.4754
     17 C         144.5507  143.3813  162.2555 C.3     1  UNL1        0.2068
     18 C         145.2610  142.0723  162.4345 C.3     1  UNL1        0.0646
     19 C         144.5223  140.7835  162.2268 C.3     1  UNL1        0.0759
     20 C         141.3625  140.2238  162.8201 C.3     1  UNL1        0.0173
     21 C         142.5119  139.7833  163.6771 C.3     1  UNL1        0.0576
     22 C         142.4110  139.0083  164.9574 C.3     1  UNL1        0.0174
     23 C         143.8009  138.7865  165.4760 C.3     1  UNL1        0.0187
     24 C         144.7610  139.4246  164.5162 C.3     1  UNL1        0.0721
     25 N         143.9644  140.0406  163.4044 N.3     1  UNL1       -0.2738
@<TRIPOS>BOND
     1    21    20    1
     2    21    22    1
     3    22    23    1
     4    23    24    1
     5    24    25    1
     6    25    19    1
     7    19    18    1
     8    18    17    1
     9    17    16    1
    10    16     1    1
    11     1     2   ar
    12     2     3   ar
    13     3     4   ar
    14     4     7    1
    15     7     8    2
    16     8     9    1
    17     9    10   am
    18    10    11    2
    19    10    12    1
    20    12    13    1
    21    13    14    1
    22     4     5   ar
    23     5     6   ar
    24    25    21    1
    25     6     1   ar
    26    14     7    1
    27    14    12    1
    28     9    15    1
@<TRIPOS>MOLECULE
*****
 25 28 0 0 0
SMALL
GASTEIGER

@<TRIPOS>ATOM
      1 C         139.9954  138.0240  164.0248 C.ar    1  UNL1        0.1386
      2 C         138.7330  138.2681  164.7974 C.ar    1  UNL1        0.0369
      3 C         138.7859  138.9880  166.1123 C.ar    1  UNL1        0.0043
      4 C         140.1011  139.4638  166.6546 C.ar    1  UNL1        0.0152
      5 C         141.3634  139.2196  165.8819 C.ar    1  UNL1        0.0043
      6 C         141.3105  138.4997  164.5670 C.ar    1  UNL1        0.0369
      7 C         140.1540  140.1837  167.9695 C.2     1  UNL1        0.0763
      8 N         139.1528  139.8648  169.0399 N.2     1  UNL1       -0.1836
      9 N         139.2057  140.5847  170.3548 N.am    1  UNL1       -0.2062
     10 C         140.2597  141.6234  170.5992 C.2     1  UNL1        0.2410
     11 O         140.3126  142.3433  171.9141 O.2     1  UNL1       -0.2734
     12 C         141.2610  141.9424  169.5288 C.3     1  UNL1        0.0841
     13 C         142.2622  142.2613  168.4584 C.3     1  UNL1        0.0160
     14 C         141.2082  141.2225  168.2139 C.3     1  UNL1        0.0509
     15 H         138.5485  140.3754  171.0573 H       1  UNL1        0.1772
     16 O         139.9425  137.3041  162.7099 O.3     1  UNL1       -0.4754
     17 C         139.8270  138.0824  161.4328 C.3     1  UNL1        0.2068
     18 C         138.5839  138.8710  161.1450 C.3     1  UNL1        0.0646
     19 C         138.6298  140.3702  161.1458 C.3     1  UNL1        0.0759
     20 C         141.2667  141.5642  162.6528 C.3     1  UNL1        0.0173
     21 C         139.8512  141.6684  163.1379 C.3     1  UNL1        0.0576
     22 C         139.3990  142.3398  164.4008 C.3     1  UNL1        0.0174
     23 C         137.9076  142.2059  164.4886 C.3     1  UNL1        0.0187
     24 C         137.4379  141.4518  163.2799 C.3     1  UNL1        0.0721
     25 N         138.6391  141.1196  162.4451 N.3     1  UNL1       -0.2738
@<TRIPOS>BOND
     1    21    20    1
     2    21    22    1
     3    22    23    1
     4    23    24    1
     5    24    25    1
     6    25    19    1
     7    19    18    1
     8    18    17    1
     9    17    16    1
    10    16     1    1
    11     1     2   ar
    12     2     3   ar
    13     3     4   ar
    14     4     7    1
    15     7     8    2
    16     8     9    1
    17     9    10   am
    18    10    11    2
    19    10    12    1
    20    12    13    1
    21    13    14    1
    22     4     5   ar
    23     5     6   ar
    24    25    21    1
    25     6     1   ar
    26    14     7    1
    27    14    12    1
    28     9    15    1
@<TRIPOS>MOLECULE
*****
 25 28 0 0 0
SMALL
GASTEIGER

@<TRIPOS>ATOM
      1 C         138.4362  138.8049  163.4723 C.ar    1  UNL1        0.1386
      2 C         139.0367  137.8487  164.4599 C.ar    1  UNL1        0.0369
      3 C         139.3715  138.3141  165.8460 C.ar    1  UNL1        0.0043
      4 C         139.1059  139.7356  166.2445 C.ar    1  UNL1        0.0152
      5 C         138.5055  140.6917  165.2570 C.ar    1  UNL1        0.0043
      6 C         138.1707  140.2264  163.8709 C.ar    1  UNL1        0.0369
      7 C         139.4407  140.2009  167.6307 C.2     1  UNL1        0.0763
      8 N         138.7580  139.5830  168.8147 N.2     1  UNL1       -0.1836
      9 N         139.0928  140.0483  170.2008 N.am    1  UNL1       -0.2062
     10 C         140.1104  141.1316  170.4029 C.2     1  UNL1        0.2410
     11 O         140.4452  141.5969  171.7891 O.2     1  UNL1       -0.2734
     12 C         140.7933  141.7496  169.2189 C.3     1  UNL1        0.0841
     13 C         141.4761  142.3675  168.0349 C.3     1  UNL1        0.0160
     14 C         140.4584  141.2843  167.8328 C.3     1  UNL1        0.0509
     15 H         138.6446  139.6427  170.9779 H       1  UNL1        0.1772
     16 O         138.1014  138.3396  162.0861 O.3     1  UNL1       -0.4754
     17 C         139.0383  138.6290  160.9511 C.3     1  UNL1        0.2068
     18 C         140.5027  138.3375  161.0943 C.3     1  UNL1        0.0646
     19 C         141.4467  139.4258  161.5121 C.3     1  UNL1        0.0759
     20 C         141.4791  142.0056  163.5104 C.3     1  UNL1        0.0173
     21 C         142.0050  140.6374  163.8285 C.3     1  UNL1        0.0576
     22 C         142.6382  140.2146  165.1209 C.3     1  UNL1        0.0174
     23 C         143.0147  138.7676  165.0012 C.3     1  UNL1        0.0187
     24 C         142.6141  138.2960  163.6348 C.3     1  UNL1        0.0721
     25 N         141.9901  139.4515  162.9100 N.3     1  UNL1       -0.2738
@<TRIPOS>BOND
     1    21    20    1
     2    21    22    1
     3    22    23    1
     4    23    24    1
     5    24    25    1
     6    25    19    1
     7    19    18    1
     8    18    17    1
     9    17    16    1
    10    16     1    1
    11     1     2   ar
    12     2     3   ar
    13     3     4   ar
    14     4     7    1
    15     7     8    2
    16     8     9    1
    17     9    10   am
    18    10    11    2
    19    10    12    1
    20    12    13    1
    21    13    14    1
    22     4     5   ar
    23     5     6   ar
    24    25    21    1
    25     6     1   ar
    26    14     7    1
    27    14    12    1
    28     9    15    1
@<TRIPOS>MOLECULE
*****
 25 28 0 0 0
SMALL
GASTEIGER

@<TRIPOS>ATOM
      1 C         142.5792  138.6275  164.2709 C.ar    1  UNL1        0.1386
      2 C         141.2347  139.2591  164.4799 C.ar    1  UNL1        0.0369
      3 C         140.8773  139.8372  165.8171 C.ar    1  UNL1        0.0043
      4 C         141.8645  139.7837  166.9453 C.ar    1  UNL1        0.0152
      5 C         143.2088  139.1521  166.7363 C.ar    1  UNL1        0.0043
      6 C         143.5662  138.5740  165.3991 C.ar    1  UNL1        0.0369
      7 C         141.5071  140.3618  168.2825 C.2     1  UNL1        0.0763
      8 N         141.7244  139.5573  169.5297 N.2     1  UNL1       -0.1836
      9 N         141.3670  140.1353  170.8669 N.am    1  UNL1       -0.2062
     10 C         140.7924  141.5180  170.9569 C.2     1  UNL1        0.2410
     11 O         140.4351  142.0960  172.2941 O.2     1  UNL1       -0.2734
     12 C         140.5751  142.3225  169.7097 C.3     1  UNL1        0.0841
     13 C         140.3578  143.1271  168.4625 C.3     1  UNL1        0.0160
     14 C         140.9324  141.7445  168.3725 C.3     1  UNL1        0.0509
     15 H         141.5097  139.6073  171.6855 H       1  UNL1        0.1772
     16 O         142.9365  138.0494  162.9337 O.3     1  UNL1       -0.4754
     17 C         143.6145  138.9039  161.9042 C.3     1  UNL1        0.2068
     18 C         142.9069  140.0989  161.3372 C.3     1  UNL1        0.0646
     19 C         143.3925  141.4809  161.6598 C.3     1  UNL1        0.0759
     20 C         145.7164  141.3254  163.9455 C.3     1  UNL1        0.0173
     21 C         144.3554  141.9334  164.1120 C.3     1  UNL1        0.0576
     22 C         143.8234  142.5766  165.3583 C.3     1  UNL1        0.0174
     23 C         142.4265  143.0456  165.0780 C.3     1  UNL1        0.0187
     24 C         142.0951  142.6923  163.6584 C.3     1  UNL1        0.0721
     25 N         143.2871  142.0049  163.0613 N.3     1  UNL1       -0.2738
@<TRIPOS>BOND
     1    21    20    1
     2    21    22    1
     3    22    23    1
     4    23    24    1
     5    24    25    1
     6    25    19    1
     7    19    18    1
     8    18    17    1
     9    17    16    1
    10    16     1    1
    11     1     2   ar
    12     2     3   ar
    13     3     4   ar
    14     4     7    1
    15     7     8    2
    16     8     9    1
    17     9    10   am
    18    10    11    2
    19    10    12    1
    20    12    13    1
    21    13    14    1
    22     4     5   ar
    23     5     6   ar
    24    25    21    1
    25     6     1   ar
    26    14     7    1
    27    14    12    1
    28     9    15    1
@<TRIPOS>MOLECULE
*****
 25 28 0 0 0
SMALL
GASTEIGER

@<TRIPOS>ATOM
      1 C         143.3129  143.4909  164.7646 C.ar    1  UNL1        0.1386
      2 C         141.8265  143.5605  164.5747 C.ar    1  UNL1        0.0369
      3 C         140.9118  142.9170  165.5743 C.ar    1  UNL1        0.0043
      4 C         141.4834  142.2040  166.7638 C.ar    1  UNL1        0.0152
      5 C         142.9696  142.1345  166.9537 C.ar    1  UNL1        0.0043
      6 C         143.8844  142.7780  165.9541 C.ar    1  UNL1        0.0369
      7 C         140.5686  141.5605  167.7634 C.2     1  UNL1        0.0763
      8 N         140.5203  142.0707  169.1731 N.2     1  UNL1       -0.1836
      9 N         139.6056  141.4272  170.1727 N.am    1  UNL1       -0.2062
     10 C         138.7391  140.2736  169.7626 C.2     1  UNL1        0.2410
     11 O         137.8244  139.6301  170.7622 O.2     1  UNL1       -0.2734
     12 C         138.7874  139.7633  168.3528 C.3     1  UNL1        0.0841
     13 C         138.8356  139.2531  166.9431 C.3     1  UNL1        0.0160
     14 C         139.7021  140.4068  167.3532 C.3     1  UNL1        0.0509
     15 H         139.5739  141.7621  171.0980 H       1  UNL1        0.1772
     16 O         144.2276  144.1344  163.7650 O.3     1  UNL1       -0.4754
     17 C         143.9024  144.0724  162.3021 C.3     1  UNL1        0.2068
     18 C         144.4435  142.9551  161.4601 C.3     1  UNL1        0.0646
     19 C         144.7152  141.6151  162.0769 C.3     1  UNL1        0.0759
     20 C         144.9743  139.4696  164.5222 C.3     1  UNL1        0.0173
     21 C         143.7106  139.8388  163.8035 C.3     1  UNL1        0.0576
     22 C         142.3441  139.2867  164.0824 C.3     1  UNL1        0.0174
     23 C         141.3804  139.9317  163.1309 C.3     1  UNL1        0.0187
     24 C         142.1513  140.8824  162.2638 C.3     1  UNL1        0.0721
     25 N         143.5915  140.8250  162.6794 N.3     1  UNL1       -0.2738
@<TRIPOS>BOND
     1    21    20    1
     2    21    22    1
     3    22    23    1
     4    23    24    1
     5    24    25    1
     6    25    19    1
     7    19    18    1
     8    18    17    1
     9    17    16    1
    10    16     1    1
    11     1     2   ar
    12     2     3   ar
    13     3     4   ar
    14     4     7    1
    15     7     8    2
    16     8     9    1
    17     9    10   am
    18    10    11    2
    19    10    12    1
    20    12    13    1
    21    13    14    1
    22     4     5   ar
    23     5     6   ar
    24    25    21    1
    25     6     1   ar
    26    14     7    1
    27    14    12    1
    28     9    15    1
@<TRIPOS>MOLECULE
*****
 25 28 0 0 0
SMALL
GASTEIGER

@<TRIPOS>ATOM
      1 C         144.2793  140.9751  163.9225 C.ar    1  UNL1        0.1386
      2 C         143.6272  139.7330  164.4537 C.ar    1  UNL1        0.0369
      3 C         143.0165  139.7339  165.8237 C.ar    1  UNL1        0.0043
      4 C         143.0579  140.9768  166.6626 C.ar    1  UNL1        0.0152
      5 C         143.7100  142.2187  166.1313 C.ar    1  UNL1        0.0043
      6 C         144.3207  142.2179  164.7613 C.ar    1  UNL1        0.0369
      7 C         142.4472  140.9776  168.0326 C.2     1  UNL1        0.0763
      8 N         142.8371  139.9256  169.0282 N.2     1  UNL1       -0.1836
      9 N         142.2264  139.9265  170.3982 N.am    1  UNL1       -0.2062
     10 C         141.2258  140.9794  170.7727 C.2     1  UNL1        0.2410
     11 O         140.6151  140.9802  172.1428 O.2     1  UNL1       -0.2734
     12 C         140.8359  142.0314  169.7771 C.3     1  UNL1        0.0841
     13 C         140.4460  143.0835  168.7815 C.3     1  UNL1        0.0160
     14 C         141.4466  142.0306  168.4071 C.3     1  UNL1        0.0509
     15 H         142.4823  139.2360  171.0517 H       1  UNL1        0.1772
     16 O         144.8900  140.9742  162.5524 O.3     1  UNL1       -0.4754
     17 C         144.3134  141.8423  161.4737 C.3     1  UNL1        0.2068
     18 C         142.8621  141.7257  161.1127 C.3     1  UNL1        0.0646
     19 C         141.9051  142.8169  161.4911 C.3     1  UNL1        0.0759
     20 C         141.9448  145.2972  163.6116 C.3     1  UNL1        0.0173
     21 C         141.2934  143.9634  163.8271 C.3     1  UNL1        0.0576
     22 C         140.5458  143.5353  165.0551 C.3     1  UNL1        0.0174
     23 C         140.0655  142.1308  164.8394 C.3     1  UNL1        0.0187
     24 C         140.5162  141.6907  163.4781 C.3     1  UNL1        0.0721
     25 N         141.2751  142.8233  162.8524 N.3     1  UNL1       -0.2738
@<TRIPOS>BOND
     1    21    20    1
     2    21    22    1
     3    22    23    1
     4    23    24    1
     5    24    25    1
     6    25    19    1
     7    19    18    1
     8    18    17    1
     9    17    16    1
    10    16     1    1
    11     1     2   ar
    12     2     3   ar
    13     3     4   ar
    14     4     7    1
    15     7     8    2
    16     8     9    1
    17     9    10   am
    18    10    11    2
    19    10    12    1
    20    12    13    1
    21    13    14    1
    22     4     5   ar
    23     5     6   ar
    24    25    21    1
    25     6     1   ar
    26    14     7    1
    27    14    12    1
    28     9    15    1
@<TRIPOS>MOLECULE
*****
 25 28 0 0 0
SMALL
GASTEIGER

@<TRIPOS>ATOM
      1 C         144.3727  140.7733  164.0849 C.ar    1  UNL1        0.1386
      2 C         143.9791  139.5975  164.9291 C.ar    1  UNL1        0.0369
      3 C         143.3643  139.8162  166.2798 C.ar    1  UNL1        0.0043
      4 C         143.1432  141.2108  166.7862 C.ar    1  UNL1        0.0152
      5 C         143.5368  142.3865  165.9419 C.ar    1  UNL1        0.0043
      6 C         144.1515  142.1677  164.5913 C.ar    1  UNL1        0.0369
      7 C         142.5285  141.4295  168.1368 C.2     1  UNL1        0.0763
      8 N         143.0800  140.7173  169.3361 N.2     1  UNL1       -0.1836
      9 N         142.4653  140.9360  170.6868 N.am    1  UNL1       -0.2062
     10 C         141.2990  141.8671  170.8381 C.2     1  UNL1        0.2410
     11 O         140.6843  142.0858  172.1888 O.2     1  UNL1       -0.2734
     12 C         140.7474  142.5794  169.6388 C.3     1  UNL1        0.0841
     13 C         140.1959  143.2916  168.4394 C.3     1  UNL1        0.0160
     14 C         141.3621  142.3606  168.2881 C.3     1  UNL1        0.0509
     15 H         142.8273  140.4685  171.4740 H       1  UNL1        0.1772
     16 O         144.9874  140.5545  162.7342 O.3     1  UNL1       -0.4754
     17 C         144.1140  140.4672  161.5179 C.3     1  UNL1        0.2068
     18 C         143.1894  139.2994  161.3408 C.3     1  UNL1        0.0646
     19 C         141.7051  139.4982  161.4266 C.3     1  UNL1        0.0759
     20 C         140.7647  137.4123  163.7534 C.3     1  UNL1        0.0173
     21 C         140.6397  138.9061  163.8056 C.3     1  UNL1        0.0576
     22 C         140.0606  139.7035  164.9364 C.3     1  UNL1        0.0174
     23 C         140.1349  141.1551  164.5658 C.3     1  UNL1        0.0187
     24 C         140.7600  141.2548  163.2059 C.3     1  UNL1        0.0721
     25 N         141.0720  139.8649  162.7360 N.3     1  UNL1       -0.2738
@<TRIPOS>BOND
     1    21    20    1
     2    21    22    1
     3    22    23    1
     4    23    24    1
     5    24    25    1
     6    25    19    1
     7    19    18    1
     8    18    17    1
     9    17    16    1
    10    16     1    1
    11     1     2   ar
    12     2     3   ar
    13     3     4   ar
    14     4     7    1
    15     7     8    2
    16     8     9    1
    17     9    10   am
    18    10    11    2
    19    10    12    1
    20    12    13    1
    21    13    14    1
    22     4     5   ar
    23     5     6   ar
    24    25    21    1
    25     6     1   ar
    26    14     7    1
    27    14    12    1
    28     9    15    1
@<TRIPOS>MOLECULE
*****
 25 28 0 0 0
SMALL
GASTEIGER

@<TRIPOS>ATOM
      1 C         138.1335  141.0612  164.2481 C.ar    1  UNL1        0.1386
      2 C         138.1601  139.6578  164.7771 C.ar    1  UNL1        0.0369
      3 C         139.0733  139.3014  165.9125 C.ar    1  UNL1        0.0043
      4 C         139.9599  140.3485  166.5189 C.ar    1  UNL1        0.0152
      5 C         139.9332  141.7519  165.9899 C.ar    1  UNL1        0.0043
      6 C         139.0200  142.1082  164.8545 C.ar    1  UNL1        0.0369
      7 C         140.8731  139.9922  167.6543 C.2     1  UNL1        0.0763
      8 N         142.2158  139.3848  167.3746 N.2     1  UNL1       -0.1836
      9 N         143.1290  139.0285  168.5100 N.am    1  UNL1       -0.2062
     10 C         142.6995  139.2795  169.9250 C.2     1  UNL1        0.2410
     11 O         143.6127  138.9232  171.0604 O.2     1  UNL1       -0.2734
     12 C         141.3567  139.8869  170.2048 C.3     1  UNL1        0.0841
     13 C         140.0141  140.4943  170.4845 C.3     1  UNL1        0.0160
     14 C         140.4435  140.2432  169.0694 C.3     1  UNL1        0.0509
     15 H         144.0102  138.6298  168.3264 H       1  UNL1        0.1772
     16 O         137.2203  141.4175  163.1127 O.3     1  UNL1       -0.4754
     17 C         137.6871  141.2578  161.6963 C.3     1  UNL1        0.2068
     18 C         139.1548  141.1934  161.3930 C.3     1  UNL1        0.0646
     19 C         139.7931  139.8797  161.0515 C.3     1  UNL1        0.0759
     20 C         142.1523  140.9723  163.0237 C.3     1  UNL1        0.0173
     21 C         141.5751  139.5878  163.0223 C.3     1  UNL1        0.0576
     22 C         141.9810  138.4624  163.9272 C.3     1  UNL1        0.0174
     23 C         141.1474  137.2647  163.5799 C.3     1  UNL1        0.0187
     24 C         140.2264  137.6499  162.4604 C.3     1  UNL1        0.0721
     25 N         140.4907  139.0856  162.1158 N.3     1  UNL1       -0.2738
@<TRIPOS>BOND
     1    21    20    1
     2    21    22    1
     3    22    23    1
     4    23    24    1
     5    24    25    1
     6    25    19    1
     7    19    18    1
     8    18    17    1
     9    17    16    1
    10    16     1    1
    11     1     2   ar
    12     2     3   ar
    13     3     4   ar
    14     4     7    1
    15     7     8    2
    16     8     9    1
    17     9    10   am
    18    10    11    2
    19    10    12    1
    20    12    13    1
    21    13    14    1
    22     4     5   ar
    23     5     6   ar
    24    25    21    1
    25     6     1   ar
    26    14     7    1
    27    14    12    1
    28     9    15    1
@<TRIPOS>MOLECULE
*****
 25 28 0 0 0
SMALL
GASTEIGER

@<TRIPOS>ATOM
      1 C         144.5529  141.6477  163.8885 C.ar    1  UNL1        0.1386
      2 C         143.9047  140.3735  164.3430 C.ar    1  UNL1        0.0369
      3 C         143.2166  140.3156  165.6746 C.ar    1  UNL1        0.0043
      4 C         143.1766  141.5318  166.5517 C.ar    1  UNL1        0.0152
      5 C         143.8247  142.8059  166.0972 C.ar    1  UNL1        0.0043
      6 C         144.5128  142.8639  164.7656 C.ar    1  UNL1        0.0369
      7 C         142.4884  141.4739  167.8832 C.2     1  UNL1        0.0763
      8 N         141.7416  142.6702  168.3942 N.2     1  UNL1       -0.1836
      9 N         141.0535  142.6123  169.7258 N.am    1  UNL1       -0.2062
     10 C         141.1121  141.3580  170.5464 C.2     1  UNL1        0.2410
     11 O         140.4239  141.3001  171.8780 O.2     1  UNL1       -0.2734
     12 C         141.8589  140.1616  170.0354 C.3     1  UNL1        0.0841
     13 C         142.6057  138.9653  169.5244 C.3     1  UNL1        0.0160
     14 C         142.5470  140.2196  168.7038 C.3     1  UNL1        0.0509
     15 H         140.5633  143.3975  170.0612 H       1  UNL1        0.1772
     16 O         145.2410  141.7057  162.5569 O.3     1  UNL1       -0.4754
     17 C         144.7056  142.5948  161.4741 C.3     1  UNL1        0.2068
     18 C         143.5227  142.1582  160.6616 C.3     1  UNL1        0.0646
     19 C         142.2168  142.8853  160.7875 C.3     1  UNL1        0.0759
     20 C         140.5824  141.1418  163.0099 C.3     1  UNL1        0.0173
     21 C         141.0062  142.5737  163.1503 C.3     1  UNL1        0.0576
     22 C         140.7532  143.4559  164.3369 C.3     1  UNL1        0.0174
     23 C         141.3480  144.8024  164.0488 C.3     1  UNL1        0.0187
     24 C         141.9687  144.7525  162.6841 C.3     1  UNL1        0.0721
     25 N         141.7574  143.3752  162.1288 N.3     1  UNL1       -0.2738
@<TRIPOS>BOND
     1    21    20    1
     2    21    22    1
     3    22    23    1
     4    23    24    1
     5    24    25    1
     6    25    19    1
     7    19    18    1
     8    18    17    1
     9    17    16    1
    10    16     1    1
    11     1     2   ar
    12     2     3   ar
    13     3     4   ar
    14     4     7    1
    15     7     8    2
    16     8     9    1
    17     9    10   am
    18    10    11    2
    19    10    12    1
    20    12    13    1
    21    13    14    1
    22     4     5   ar
    23     5     6   ar
    24    25    21    1
    25     6     1   ar
    26    14     7    1
    27    14    12    1
    28     9    15    1
