@<TRIPOS>MOLECULE
*****
 26 29 0 0 0
SMALL
GASTEIGER

@<TRIPOS>ATOM
      1 C         141.1240  142.3832  165.0712 C.2     1  UNL1        0.0020
      2 C         142.5151  142.1355  164.5678 C.2     1  UNL1        0.0130
      3 C         142.9194  142.6259  163.2090 C.3     1  UNL1        0.1542
      4 C         143.9062  141.8879  164.0643 C.3     1  UNL1        0.0614
      5 C         145.2973  141.6402  163.5609 C.3     1  UNL1        0.0725
      6 N         145.7016  142.1306  162.2021 N.3     1  UNL1       -0.2972
      7 C         144.7148  142.8686  161.3469 C.3     1  UNL1        0.0725
      8 C         143.3237  143.1162  161.8503 C.3     1  UNL1        0.0614
      9 O         141.9325  143.3639  162.3538 O.3     1  UNL1       -0.4785
     10 C         140.5414  143.6115  162.8572 C.ar    1  UNL1        0.1386
     11 C         139.5545  144.3496  162.0019 C.ar    1  UNL1        0.0369
     12 C         138.1634  144.5972  162.5054 C.ar    1  UNL1        0.0031
     13 C         137.7592  144.1068  163.8641 C.ar    1  UNL1        0.0002
     14 C         138.7460  143.3688  164.7194 C.ar    1  UNL1        0.0030
     15 C         140.1371  143.1212  164.2159 C.ar    1  UNL1        0.0338
     16 H         145.9984  141.3125  161.6702 H       1  UNL1        0.1233
     17 C         139.9111  140.9121  169.1473 C.ar    1  UNL1        0.0756
     18 C         140.3465  142.3356  168.9626 C.ar    1  UNL1        0.0064
     19 C         140.7508  142.8259  167.6039 C.ar    1  UNL1        0.0002
     20 C         140.7197  141.8928  166.4299 C.ar    1  UNL1       -0.0001
     21 C         140.2843  140.4693  166.6146 C.ar    1  UNL1        0.0002
     22 C         139.8800  139.9789  167.9733 C.ar    1  UNL1        0.0064
     23 C         139.5068  140.4218  170.5061 C.2     1  UNL1        0.3413
     24 O         138.2061  139.6965  170.6853 O.2     1  UNL1       -0.2449
     25 C         141.8867  140.7629  171.4907 C.3     1  UNL1        0.2560
     26 O         140.4032  140.6567  171.6855 O.3     1  UNL1       -0.4413
@<TRIPOS>BOND
     1    25    26    1
     2    26    23    1
     3    23    24    2
     4    23    17    1
     5    17    18   ar
     6    18    19   ar
     7    19    20   ar
     8    20     1    1
     9     1     2    2
    10     2     3    1
    11     3     4    1
    12     4     5    1
    13     5     6    1
    14     6     7    1
    15     7     8    1
    16     3     9    1
    17     9    10    1
    18    10    11   ar
    19    11    12   ar
    20    12    13   ar
    21    13    14   ar
    22    14    15   ar
    23    20    21   ar
    24    21    22   ar
    25    22    17   ar
    26    15     1    1
    27     8     3    1
    28    15    10   ar
    29     6    16    1
@<TRIPOS>MOLECULE
*****
 26 29 0 0 0
SMALL
GASTEIGER

@<TRIPOS>ATOM
      1 C         141.2990  142.0466  166.3473 C.2     1  UNL1        0.0020
      2 C         140.8607  142.4484  167.7245 C.2     1  UNL1        0.0130
      3 C         141.2204  141.5953  168.9047 C.3     1  UNL1        0.1542
      4 C         140.4224  142.8500  169.1016 C.3     1  UNL1        0.0614
      5 C         139.9842  143.2517  170.4787 C.3     1  UNL1        0.0725
      6 N         140.3438  142.3986  171.6589 N.3     1  UNL1       -0.2972
      7 C         141.1418  141.1439  171.4620 C.3     1  UNL1        0.0725
      8 C         141.5800  140.7422  170.0849 C.3     1  UNL1        0.0614
      9 O         142.0184  140.3404  168.7077 O.3     1  UNL1       -0.4785
     10 C         142.4566  139.9388  167.3306 C.ar    1  UNL1        0.1386
     11 C         143.2546  138.6839  167.1336 C.ar    1  UNL1        0.0369
     12 C         143.6929  138.2823  165.7564 C.ar    1  UNL1        0.0031
     13 C         143.3332  139.1354  164.5762 C.ar    1  UNL1        0.0002
     14 C         142.5353  140.3901  164.7732 C.ar    1  UNL1        0.0030
     15 C         142.0970  140.7919  166.1504 C.ar    1  UNL1        0.0338
     16 H         139.4670  142.1235  172.1015 H       1  UNL1        0.1233
     17 C         140.2200  144.6059  162.8067 C.ar    1  UNL1        0.0756
     18 C         141.5888  144.7025  163.4126 C.ar    1  UNL1        0.0064
     19 C         141.9484  143.8494  164.5928 C.ar    1  UNL1        0.0002
     20 C         140.9394  142.8997  165.1671 C.ar    1  UNL1       -0.0001
     21 C         139.5706  142.8030  164.5611 C.ar    1  UNL1        0.0002
     22 C         139.2109  143.6561  163.3809 C.ar    1  UNL1        0.0064
     23 C         139.8604  145.4590  161.6265 C.2     1  UNL1        0.3413
     24 O         139.6854  146.9391  161.7964 O.2     1  UNL1       -0.2449
     25 C         140.4350  145.3586  159.0947 C.3     1  UNL1        0.2560
     26 O         139.6757  144.8321  160.2764 O.3     1  UNL1       -0.4413
@<TRIPOS>BOND
     1    25    26    1
     2    26    23    1
     3    23    24    2
     4    23    17    1
     5    17    18   ar
     6    18    19   ar
     7    19    20   ar
     8    20     1    1
     9     1     2    2
    10     2     3    1
    11     3     4    1
    12     4     5    1
    13     5     6    1
    14     6     7    1
    15     7     8    1
    16     3     9    1
    17     9    10    1
    18    10    11   ar
    19    11    12   ar
    20    12    13   ar
    21    13    14   ar
    22    14    15   ar
    23    20    21   ar
    24    21    22   ar
    25    22    17   ar
    26    15     1    1
    27     8     3    1
    28    15    10   ar
    29     6    16    1
@<TRIPOS>MOLECULE
*****
 26 29 0 0 0
SMALL
GASTEIGER

@<TRIPOS>ATOM
      1 C         140.9568  141.7120  164.9374 C.2     1  UNL1        0.0020
      2 C         140.2910  140.4146  164.5858 C.2     1  UNL1        0.0130
      3 C         139.9396  140.1146  163.1588 C.3     1  UNL1        0.1542
      4 C         139.6253  139.1173  164.2342 C.3     1  UNL1        0.0614
      5 C         138.9595  137.8200  163.8826 C.3     1  UNL1        0.0725
      6 N         138.6081  137.5199  162.4556 N.3     1  UNL1       -0.2972
      7 C         138.9224  138.5172  161.3802 C.3     1  UNL1        0.0725
      8 C         139.5881  139.8145  161.7318 C.3     1  UNL1        0.0614
      9 O         140.2539  141.1119  162.0833 O.3     1  UNL1       -0.4785
     10 C         140.9196  142.4092  162.4349 C.ar    1  UNL1        0.1386
     11 C         141.2340  143.4066  161.3595 C.ar    1  UNL1        0.0369
     12 C         141.8997  144.7039  161.7110 C.ar    1  UNL1        0.0031
     13 C         142.2512  145.0040  163.1381 C.ar    1  UNL1        0.0002
     14 C         141.9369  144.0067  164.2135 C.ar    1  UNL1        0.0030
     15 C         141.2711  142.7093  163.8620 C.ar    1  UNL1        0.0338
     16 H         137.6005  137.3638  162.4271 H       1  UNL1        0.1233
     17 C         142.0111  142.6123  169.2185 C.ar    1  UNL1        0.0756
     18 C         142.9970  141.9060  168.3359 C.ar    1  UNL1        0.0064
     19 C         142.6456  141.6059  166.9089 C.ar    1  UNL1        0.0002
     20 C         141.3082  142.0121  166.3645 C.ar    1  UNL1       -0.0001
     21 C         140.3222  142.7185  167.2471 C.ar    1  UNL1        0.0002
     22 C         140.6737  143.0185  168.6741 C.ar    1  UNL1        0.0064
     23 C         142.3625  142.9123  170.6456 C.2     1  UNL1        0.3413
     24 O         143.3750  143.9731  170.9615 O.2     1  UNL1       -0.2449
     25 C         140.9606  140.8818  171.4591 C.3     1  UNL1        0.2560
     26 O         141.7016  142.1517  171.7566 O.3     1  UNL1       -0.4413
@<TRIPOS>BOND
     1    25    26    1
     2    26    23    1
     3    23    24    2
     4    23    17    1
     5    17    18   ar
     6    18    19   ar
     7    19    20   ar
     8    20     1    1
     9     1     2    2
    10     2     3    1
    11     3     4    1
    12     4     5    1
    13     5     6    1
    14     6     7    1
    15     7     8    1
    16     3     9    1
    17     9    10    1
    18    10    11   ar
    19    11    12   ar
    20    12    13   ar
    21    13    14   ar
    22    14    15   ar
    23    20    21   ar
    24    21    22   ar
    25    22    17   ar
    26    15     1    1
    27     8     3    1
    28    15    10   ar
    29     6    16    1
@<TRIPOS>MOLECULE
*****
 26 29 0 0 0
SMALL
GASTEIGER

@<TRIPOS>ATOM
      1 C         139.9439  142.0084  165.8357 C.2     1  UNL1        0.0020
      2 C         140.3153  142.4839  167.2091 C.2     1  UNL1        0.0130
      3 C         140.2258  141.5467  168.3769 C.3     1  UNL1        0.1542
      4 C         140.6866  142.9593  168.5824 C.3     1  UNL1        0.0614
      5 C         141.0580  143.4347  169.9557 C.3     1  UNL1        0.0725
      6 N         140.9686  142.4975  171.1235 N.3     1  UNL1       -0.2972
      7 C         140.5078  141.0850  170.9180 C.3     1  UNL1        0.0725
      8 C         140.1364  140.6096  169.5447 C.3     1  UNL1        0.0614
      9 O         139.7650  140.1341  168.1713 O.3     1  UNL1       -0.4785
     10 C         139.3937  139.6587  166.7980 C.ar    1  UNL1        0.1386
     11 C         138.9329  138.2460  166.5924 C.ar    1  UNL1        0.0369
     12 C         138.5615  137.7706  165.2191 C.ar    1  UNL1        0.0031
     13 C         138.6509  138.7078  164.0513 C.ar    1  UNL1        0.0002
     14 C         139.1117  140.1203  164.2568 C.ar    1  UNL1        0.0030
     15 C         139.4831  140.5958  165.6302 C.ar    1  UNL1        0.0338
     16 H         140.3270  142.9220  171.7933 H       1  UNL1        0.1233
     17 C         140.2121  144.8199  162.3323 C.ar    1  UNL1        0.0756
     18 C         141.3819  143.9511  162.6880 C.ar    1  UNL1        0.0064
     19 C         141.2925  143.0139  163.8558 C.ar    1  UNL1        0.0002
     20 C         140.0333  142.9456  164.6679 C.ar    1  UNL1       -0.0001
     21 C         138.8633  143.8144  164.3123 C.ar    1  UNL1        0.0002
     22 C         138.9528  144.7516  163.1445 C.ar    1  UNL1        0.0064
     23 C         140.3015  145.7570  161.1646 C.2     1  UNL1        0.3413
     24 O         139.3167  146.8801  161.0271 O.2     1  UNL1       -0.2449
     25 C         141.0076  145.2414  158.7180 C.3     1  UNL1        0.2560
     26 O         141.3757  145.5711  160.1343 O.3     1  UNL1       -0.4413
@<TRIPOS>BOND
     1    25    26    1
     2    26    23    1
     3    23    24    2
     4    23    17    1
     5    17    18   ar
     6    18    19   ar
     7    19    20   ar
     8    20     1    1
     9     1     2    2
    10     2     3    1
    11     3     4    1
    12     4     5    1
    13     5     6    1
    14     6     7    1
    15     7     8    1
    16     3     9    1
    17     9    10    1
    18    10    11   ar
    19    11    12   ar
    20    12    13   ar
    21    13    14   ar
    22    14    15   ar
    23    20    21   ar
    24    21    22   ar
    25    22    17   ar
    26    15     1    1
    27     8     3    1
    28    15    10   ar
    29     6    16    1
@<TRIPOS>MOLECULE
*****
 26 29 0 0 0
SMALL
GASTEIGER

@<TRIPOS>ATOM
      1 C         140.5812  142.1133  165.0126 C.2     1  UNL1        0.0020
      2 C         140.5518  143.2668  164.0542 C.2     1  UNL1        0.0130
      3 C         140.0975  143.0558  162.6404 C.3     1  UNL1        0.1542
      4 C         140.5225  144.4203  163.0958 C.3     1  UNL1        0.0614
      5 C         140.4931  145.5738  162.1374 C.3     1  UNL1        0.0725
      6 N         140.0387  145.3628  160.7236 N.3     1  UNL1       -0.2972
      7 C         139.6137  143.9983  160.2681 C.3     1  UNL1        0.0725
      8 C         139.6431  142.8448  161.2265 C.3     1  UNL1        0.0614
      9 O         139.6725  141.6912  162.1849 O.3     1  UNL1       -0.4785
     10 C         139.7019  140.5378  163.1433 C.ar    1  UNL1        0.1386
     11 C         139.2769  139.1732  162.6878 C.ar    1  UNL1        0.0369
     12 C         139.3063  138.0197  163.6462 C.ar    1  UNL1        0.0031
     13 C         139.7606  138.2307  165.0601 C.ar    1  UNL1        0.0002
     14 C         140.1856  139.5952  165.5156 C.ar    1  UNL1        0.0030
     15 C         140.1562  140.7488  164.5572 C.ar    1  UNL1        0.0338
     16 H         140.8107  145.6473  160.1206 H       1  UNL1        0.1233
     17 C         141.9443  142.7463  169.2543 C.ar    1  UNL1        0.0756
     18 C         140.5546  143.1371  168.8468 C.ar    1  UNL1        0.0064
     19 C         140.1003  142.9261  167.4329 C.ar    1  UNL1        0.0002
     20 C         141.0356  142.3243  166.4265 C.ar    1  UNL1       -0.0001
     21 C         142.4253  141.9334  166.8339 C.ar    1  UNL1        0.0002
     22 C         142.8797  142.1444  168.2478 C.ar    1  UNL1        0.0064
     23 C         142.3987  142.9573  170.6681 C.2     1  UNL1        0.3413
     24 O         143.4567  143.9763  170.9717 O.2     1  UNL1       -0.2449
     25 C         141.0874  140.8630  171.4708 C.3     1  UNL1        0.2560
     26 O         141.7950  142.1493  171.7784 O.3     1  UNL1       -0.4413
@<TRIPOS>BOND
     1    25    26    1
     2    26    23    1
     3    23    24    2
     4    23    17    1
     5    17    18   ar
     6    18    19   ar
     7    19    20   ar
     8    20     1    1
     9     1     2    2
    10     2     3    1
    11     3     4    1
    12     4     5    1
    13     5     6    1
    14     6     7    1
    15     7     8    1
    16     3     9    1
    17     9    10    1
    18    10    11   ar
    19    11    12   ar
    20    12    13   ar
    21    13    14   ar
    22    14    15   ar
    23    20    21   ar
    24    21    22   ar
    25    22    17   ar
    26    15     1    1
    27     8     3    1
    28    15    10   ar
    29     6    16    1
@<TRIPOS>MOLECULE
*****
 26 29 0 0 0
SMALL
GASTEIGER

@<TRIPOS>ATOM
      1 C         141.7952  140.5631  165.1377 C.2     1  UNL1        0.0020
      2 C         142.8162  141.3200  164.3408 C.2     1  UNL1        0.0130
      3 C         142.9440  141.0808  162.8655 C.3     1  UNL1        0.1542
      4 C         143.8371  142.0768  163.5440 C.3     1  UNL1        0.0614
      5 C         144.8579  142.8335  162.7471 C.3     1  UNL1        0.0725
      6 N         144.9857  142.5943  161.2718 N.3     1  UNL1       -0.2972
      7 C         144.0926  141.5984  160.5934 C.3     1  UNL1        0.0725
      8 C         143.0717  140.8416  161.3903 C.3     1  UNL1        0.0614
      9 O         142.0508  140.0847  162.1871 O.3     1  UNL1       -0.4785
     10 C         141.0299  139.3279  162.9840 C.ar    1  UNL1        0.1386
     11 C         140.1367  138.3319  162.3055 C.ar    1  UNL1        0.0369
     12 C         139.1158  137.5751  163.1024 C.ar    1  UNL1        0.0031
     13 C         138.9881  137.8143  164.5777 C.ar    1  UNL1        0.0002
     14 C         139.8812  138.8103  165.2561 C.ar    1  UNL1        0.0030
     15 C         140.9021  139.5671  164.4593 C.ar    1  UNL1        0.0338
     16 H         145.9452  142.2913  161.1047 H       1  UNL1        0.1233
     17 C         141.4119  141.2807  169.5635 C.ar    1  UNL1        0.0756
     18 C         140.5770  142.0715  168.6004 C.ar    1  UNL1        0.0064
     19 C         140.7048  141.8323  167.1252 C.ar    1  UNL1        0.0002
     20 C         141.6675  140.8023  166.6130 C.ar    1  UNL1       -0.0001
     21 C         142.5024  140.0115  167.5761 C.ar    1  UNL1        0.0002
     22 C         142.3746  140.2507  169.0514 C.ar    1  UNL1        0.0064
     23 C         141.2841  141.5199  171.0388 C.2     1  UNL1        0.3413
     24 O         140.3792  140.6533  171.8635 O.2     1  UNL1       -0.2449
     25 C         143.0765  143.3954  170.8977 C.3     1  UNL1        0.2560
     26 O         142.0612  142.6257  171.6894 O.3     1  UNL1       -0.4413
@<TRIPOS>BOND
     1    25    26    1
     2    26    23    1
     3    23    24    2
     4    23    17    1
     5    17    18   ar
     6    18    19   ar
     7    19    20   ar
     8    20     1    1
     9     1     2    2
    10     2     3    1
    11     3     4    1
    12     4     5    1
    13     5     6    1
    14     6     7    1
    15     7     8    1
    16     3     9    1
    17     9    10    1
    18    10    11   ar
    19    11    12   ar
    20    12    13   ar
    21    13    14   ar
    22    14    15   ar
    23    20    21   ar
    24    21    22   ar
    25    22    17   ar
    26    15     1    1
    27     8     3    1
    28    15    10   ar
    29     6    16    1
@<TRIPOS>MOLECULE
*****
 26 29 0 0 0
SMALL
GASTEIGER

@<TRIPOS>ATOM
      1 C         141.2072  141.5020  166.5316 C.2     1  UNL1        0.0020
      2 C         141.7721  142.0076  167.8260 C.2     1  UNL1        0.0130
      3 C         141.1840  141.5537  169.1291 C.3     1  UNL1        0.1542
      4 C         142.3369  142.5132  169.1203 C.3     1  UNL1        0.0614
      5 C         142.9017  143.0187  170.4147 C.3     1  UNL1        0.0725
      6 N         142.3136  142.5648  171.7178 N.3     1  UNL1       -0.2972
      7 C         141.1607  141.6052  171.7265 C.3     1  UNL1        0.0725
      8 C         140.5959  141.0997  170.4322 C.3     1  UNL1        0.0614
      9 O         140.0310  140.5941  169.1378 O.3     1  UNL1       -0.4785
     10 C         139.4662  140.0886  167.8435 C.ar    1  UNL1        0.1386
     11 C         138.3133  139.1290  167.8522 C.ar    1  UNL1        0.0369
     12 C         137.7485  138.6235  166.5578 C.ar    1  UNL1        0.0031
     13 C         138.3365  139.0774  165.2547 C.ar    1  UNL1        0.0002
     14 C         139.4894  140.0369  165.2460 C.ar    1  UNL1        0.0030
     15 C         140.0543  140.5425  166.5404 C.ar    1  UNL1        0.0338
     16 H         142.0026  143.4032  172.2085 H       1  UNL1        0.1233
     17 C         142.9715  142.8639  162.6223 C.ar    1  UNL1        0.0756
     18 C         143.4687  141.6067  163.2720 C.ar    1  UNL1        0.0064
     19 C         142.8806  141.1528  164.5751 C.ar    1  UNL1        0.0002
     20 C         141.7953  141.9560  165.2285 C.ar    1  UNL1       -0.0001
     21 C         141.2981  143.2133  164.5788 C.ar    1  UNL1        0.0002
     22 C         141.8862  143.6673  163.2757 C.ar    1  UNL1        0.0064
     23 C         143.5596  143.3179  161.3192 C.2     1  UNL1        0.3413
     24 O         144.8996  142.8048  160.8819 O.2     1  UNL1       -0.2449
     25 C         141.7020  143.7945  159.5665 C.3     1  UNL1        0.2560
     26 O         142.8077  144.2849  160.4535 O.3     1  UNL1       -0.4413
@<TRIPOS>BOND
     1    25    26    1
     2    26    23    1
     3    23    24    2
     4    23    17    1
     5    17    18   ar
     6    18    19   ar
     7    19    20   ar
     8    20     1    1
     9     1     2    2
    10     2     3    1
    11     3     4    1
    12     4     5    1
    13     5     6    1
    14     6     7    1
    15     7     8    1
    16     3     9    1
    17     9    10    1
    18    10    11   ar
    19    11    12   ar
    20    12    13   ar
    21    13    14   ar
    22    14    15   ar
    23    20    21   ar
    24    21    22   ar
    25    22    17   ar
    26    15     1    1
    27     8     3    1
    28    15    10   ar
    29     6    16    1
@<TRIPOS>MOLECULE
*****
 26 29 0 0 0
SMALL
GASTEIGER

@<TRIPOS>ATOM
      1 C         141.5529  140.5286  166.3193 C.2     1  UNL1        0.0020
      2 C         142.2439  141.2498  167.4385 C.2     1  UNL1        0.0130
      3 C         141.6144  141.3013  168.7991 C.3     1  UNL1        0.1542
      4 C         142.9347  141.9709  168.5577 C.3     1  UNL1        0.0614
      5 C         143.6256  142.6921  169.6769 C.3     1  UNL1        0.0725
      6 N         142.9961  142.7436  171.0374 N.3     1  UNL1       -0.2972
      7 C         141.6758  142.0740  171.2788 C.3     1  UNL1        0.0725
      8 C         140.9849  141.3529  170.1596 C.3     1  UNL1        0.0614
      9 O         140.2940  140.6317  169.0404 O.3     1  UNL1       -0.4785
     10 C         139.6031  139.9105  167.9212 C.ar    1  UNL1        0.1386
     11 C         138.2827  139.2409  168.1626 C.ar    1  UNL1        0.0369
     12 C         137.5919  138.5197  167.0434 C.ar    1  UNL1        0.0031
     13 C         138.2213  138.4682  165.6828 C.ar    1  UNL1        0.0002
     14 C         139.5416  139.1378  165.4415 C.ar    1  UNL1        0.0030
     15 C         140.2326  139.8590  166.5607 C.ar    1  UNL1        0.0338
     16 H         142.8727  143.7296  171.2676 H       1  UNL1        0.1233
     17 C         143.4413  140.3740  162.2376 C.ar    1  UNL1        0.0756
     18 C         142.3105  141.3225  162.5054 C.ar    1  UNL1        0.0064
     19 C         141.6810  141.3740  163.8660 C.ar    1  UNL1        0.0002
     20 C         142.1824  140.4771  164.9587 C.ar    1  UNL1       -0.0001
     21 C         143.3132  139.5286  164.6910 C.ar    1  UNL1        0.0002
     22 C         143.9427  139.4771  163.3304 C.ar    1  UNL1        0.0064
     23 C         144.0707  140.3225  160.8770 C.2     1  UNL1        0.3413
     24 O         144.5157  141.5893  160.2081 O.2     1  UNL1       -0.2449
     25 C         143.1120  138.0373  160.0969 C.3     1  UNL1        0.2560
     26 O         144.2552  139.0043  160.1855 O.3     1  UNL1       -0.4413
@<TRIPOS>BOND
     1    25    26    1
     2    26    23    1
     3    23    24    2
     4    23    17    1
     5    17    18   ar
     6    18    19   ar
     7    19    20   ar
     8    20     1    1
     9     1     2    2
    10     2     3    1
    11     3     4    1
    12     4     5    1
    13     5     6    1
    14     6     7    1
    15     7     8    1
    16     3     9    1
    17     9    10    1
    18    10    11   ar
    19    11    12   ar
    20    12    13   ar
    21    13    14   ar
    22    14    15   ar
    23    20    21   ar
    24    21    22   ar
    25    22    17   ar
    26    15     1    1
    27     8     3    1
    28    15    10   ar
    29     6    16    1
@<TRIPOS>MOLECULE
*****
 26 29 0 0 0
SMALL
GASTEIGER

@<TRIPOS>ATOM
      1 C         141.9274  141.5811  164.6611 C.2     1  UNL1        0.0020
      2 C         142.6759  140.7739  163.6420 C.2     1  UNL1        0.0130
      3 C         142.4895  141.0530  162.1801 C.3     1  UNL1        0.1542
      4 C         143.4243  139.9668  162.6230 C.3     1  UNL1        0.0614
      5 C         144.1727  139.1597  161.6040 C.3     1  UNL1        0.0725
      6 N         143.9863  139.4388  160.1420 N.3     1  UNL1       -0.2972
      7 C         143.0515  140.5250  159.6991 C.3     1  UNL1        0.0725
      8 C         142.3031  141.3321  160.7181 C.3     1  UNL1        0.0614
      9 O         141.5547  142.1393  161.7371 O.3     1  UNL1       -0.4785
     10 C         140.8062  142.9464  162.7561 C.ar    1  UNL1        0.1386
     11 C         139.8714  144.0327  162.3132 C.ar    1  UNL1        0.0369
     12 C         139.1230  144.8398  163.3322 C.ar    1  UNL1        0.0031
     13 C         139.3094  144.5607  164.7942 C.ar    1  UNL1        0.0002
     14 C         140.2441  143.4744  165.2371 C.ar    1  UNL1        0.0030
     15 C         140.9926  142.6673  164.2181 C.ar    1  UNL1        0.0338
     16 H         143.6543  138.5731  159.7170 H       1  UNL1        0.1233
     17 C         142.4865  140.7437  169.0470 C.ar    1  UNL1        0.0756
     18 C         141.5937  139.8637  168.2233 C.ar    1  UNL1        0.0064
     19 C         141.4074  140.1428  166.7613 C.ar    1  UNL1        0.0002
     20 C         142.1138  141.3019  166.1230 C.ar    1  UNL1       -0.0001
     21 C         143.0066  142.1820  166.9467 C.ar    1  UNL1        0.0002
     22 C         143.1930  141.9029  168.4087 C.ar    1  UNL1        0.0064
     23 C         142.6729  140.4646  170.5089 C.2     1  UNL1        0.3413
     24 O         143.6564  139.4232  170.9543 O.2     1  UNL1       -0.2449
     25 C         140.6710  142.0120  171.0989 C.3     1  UNL1        0.2560
     26 O         141.8758  141.2268  171.5256 O.3     1  UNL1       -0.4413
@<TRIPOS>BOND
     1    25    26    1
     2    26    23    1
     3    23    24    2
     4    23    17    1
     5    17    18   ar
     6    18    19   ar
     7    19    20   ar
     8    20     1    1
     9     1     2    2
    10     2     3    1
    11     3     4    1
    12     4     5    1
    13     5     6    1
    14     6     7    1
    15     7     8    1
    16     3     9    1
    17     9    10    1
    18    10    11   ar
    19    11    12   ar
    20    12    13   ar
    21    13    14   ar
    22    14    15   ar
    23    20    21   ar
    24    21    22   ar
    25    22    17   ar
    26    15     1    1
    27     8     3    1
    28    15    10   ar
    29     6    16    1
