@<TRIPOS>MOLECULE
*****
 26 30 0 0 0
SMALL
GASTEIGER

@<TRIPOS>ATOM
      1 O         142.9361  138.3267  164.6008 O.2     1  UNL1       -0.2520
      2 C         141.8375  138.3771  163.5807 C.2     1  UNL1        0.3111
      3 N         141.9996  138.1947  162.1007 N.am    1  UNL1       -0.2606
      4 C         140.6461  138.3236  161.4668 C.3     1  UNL1        0.1169
      5 C         139.6477  138.5857  162.5552 C.3     1  UNL1        0.1212
      6 N         140.3840  138.6187  163.8616 N.am    1  UNL1       -0.2414
      7 C         139.7739  138.8523  165.2118 C.ar    1  UNL1        0.0555
      8 C         138.4696  138.2026  165.5680 C.ar    1  UNL1        0.0181
      9 C         137.8594  138.4362  166.9182 C.ar    1  UNL1        0.0388
     10 C         138.5535  139.3195  167.9122 C.ar    1  UNL1        0.1455
     11 O         138.1965  139.7321  169.3096 O.2     1  UNL1       -0.4504
     12 C         139.2801  140.6367  169.8169 C.ar    1  UNL1        0.1796
     13 C         140.3069  140.7833  168.7332 C.ar    1  UNL1        0.0437
     14 C         139.8577  139.9692  167.5560 C.ar    1  UNL1        0.0389
     15 C         140.4679  139.7356  166.2058 C.ar    1  UNL1        0.0181
     16 C         143.2886  137.9299  161.3808 C.3     1  UNL1        0.1123
     17 C         144.2146  139.0651  161.0586 C.3     1  UNL1        0.0944
     18 N         144.1022  140.3602  161.8071 N.3     1  UNL1       -0.2637
     19 C         144.7813  140.6915  163.1029 C.3     1  UNL1        0.0992
     20 C         144.3898  142.0875  163.4877 C.ar    1  UNL1       -0.0088
     21 C         144.7530  142.9433  164.6649 C.ar    1  UNL1       -0.0032
     22 C         144.1952  144.3306  164.7840 C.ar    1  UNL1       -0.0003
     23 C         143.2742  144.8620  163.7260 C.ar    1  UNL1       -0.0003
     24 C         142.9110  144.0062  162.5489 C.ar    1  UNL1       -0.0032
     25 C         143.4688  142.6189  162.4298 C.ar    1  UNL1       -0.0088
     26 C         143.2911  141.5514  161.3911 C.3     1  UNL1        0.0992
@<TRIPOS>BOND
     1     1     2    2
     2     2     3   am
     3     3    16    1
     4    16    17    1
     5    17    18    1
     6    18    19    1
     7    19    20    1
     8    20    21   ar
     9    21    22   ar
    10    22    23   ar
    11    23    24   ar
    12    24    25   ar
    13    25    26    1
    14     3     4    1
    15     4     5    1
    16     5     6    1
    17     6     7    1
    18     7     8   ar
    19     8     9   ar
    20     9    10   ar
    21    10    11   ar
    22    11    12   ar
    23    12    13   ar
    24    13    14   ar
    25    14    15   ar
    26     6     2   am
    27    15     7   ar
    28    26    18    1
    29    14    10   ar
    30    25    20   ar
@<TRIPOS>MOLECULE
*****
 26 30 0 0 0
SMALL
GASTEIGER

@<TRIPOS>ATOM
      1 O         138.0089  139.5405  165.6628 O.2     1  UNL1       -0.2520
      2 C         139.3523  138.9781  165.3033 C.2     1  UNL1        0.3111
      3 N         139.6533  138.0978  164.1267 N.am    1  UNL1       -0.2606
      4 C         141.1176  137.7730  164.1534 C.3     1  UNL1        0.1169
      5 C         141.7213  138.4527  165.3466 C.3     1  UNL1        0.1212
      6 N         140.6303  139.1975  166.0572 N.am    1  UNL1       -0.2414
      7 C         140.7895  140.0175  167.3030 C.ar    1  UNL1        0.0555
      8 C         139.6854  140.0627  168.3173 C.ar    1  UNL1        0.0181
      9 C         139.8445  140.8828  169.5632 C.ar    1  UNL1        0.0388
     10 C         141.1078  141.6577  169.7946 C.ar    1  UNL1        0.1455
     11 O         141.5477  142.5476  170.9193 O.2     1  UNL1       -0.4504
     12 C         142.9236  143.0524  170.6000 C.ar    1  UNL1        0.1796
     13 C         143.3342  142.4746  169.2780 C.ar    1  UNL1        0.0437
     14 C         142.2119  141.6126  168.7803 C.ar    1  UNL1        0.0389
     15 C         142.0528  140.7925  167.5344 C.ar    1  UNL1        0.0181
     16 C         138.6639  137.6252  163.1031 C.3     1  UNL1        0.1123
     17 C         138.1889  138.5608  162.0312 C.3     1  UNL1        0.0944
     18 N         138.4683  140.0305  162.1407 N.3     1  UNL1       -0.2637
     19 C         137.5212  141.0717  162.6591 C.3     1  UNL1        0.0992
     20 C         138.2113  142.4018  162.5898 C.ar    1  UNL1       -0.0088
     21 C         137.7664  143.7841  162.9653 C.ar    1  UNL1       -0.0032
     22 C         138.6951  144.9473  162.7794 C.ar    1  UNL1       -0.0003
     23 C         140.0687  144.7280  162.2181 C.ar    1  UNL1       -0.0003
     24 C         140.5136  143.3456  161.8426 C.ar    1  UNL1       -0.0032
     25 C         139.5849  142.1825  162.0285 C.ar    1  UNL1       -0.0088
     26 C         139.7437  140.7170  161.7509 C.3     1  UNL1        0.0992
@<TRIPOS>BOND
     1     1     2    2
     2     2     3   am
     3     3    16    1
     4    16    17    1
     5    17    18    1
     6    18    19    1
     7    19    20    1
     8    20    21   ar
     9    21    22   ar
    10    22    23   ar
    11    23    24   ar
    12    24    25   ar
    13    25    26    1
    14     3     4    1
    15     4     5    1
    16     5     6    1
    17     6     7    1
    18     7     8   ar
    19     8     9   ar
    20     9    10   ar
    21    10    11   ar
    22    11    12   ar
    23    12    13   ar
    24    13    14   ar
    25    14    15   ar
    26     6     2   am
    27    15     7   ar
    28    26    18    1
    29    14    10   ar
    30    25    20   ar
@<TRIPOS>MOLECULE
*****
 26 30 0 0 0
SMALL
GASTEIGER

@<TRIPOS>ATOM
      1 O         144.0768  143.1209  165.5209 O.2     1  UNL1       -0.2520
      2 C         143.9797  141.6850  165.0979 C.2     1  UNL1        0.3111
      3 N         144.5688  141.0908  163.8529 N.am    1  UNL1       -0.2606
      4 C         144.2297  139.6298  163.8312 C.3     1  UNL1        0.1169
      5 C         143.4310  139.3211  165.0628 C.3     1  UNL1        0.1212
      6 N         143.2765  140.5912  165.8457 N.am    1  UNL1       -0.2414
      7 C         142.5469  140.7412  167.1476 C.ar    1  UNL1        0.0555
      8 C         142.5219  139.6065  168.1283 C.ar    1  UNL1        0.0181
      9 C         141.7923  139.7564  169.4303 C.ar    1  UNL1        0.0388
     10 C         141.0878  141.0411  169.7516 C.ar    1  UNL1        0.1455
     11 O         140.2925  141.4782  170.9460 O.2     1  UNL1       -0.4504
     12 C         139.8260  142.8831  170.7035 C.ar    1  UNL1        0.1796
     13 C         140.3330  143.3143  169.3592 C.ar    1  UNL1        0.0437
     14 C         141.1128  142.1758  168.7709 C.ar    1  UNL1        0.0389
     15 C         141.8424  142.0259  167.4689 C.ar    1  UNL1        0.0181
     16 C         145.3584  141.8282  162.8123 C.3     1  UNL1        0.1123
     17 C         144.6529  142.6825  161.8013 C.3     1  UNL1        0.0944
     18 N         143.2011  143.0138  161.9816 N.3     1  UNL1       -0.2637
     19 C         142.0445  142.1191  161.6475 C.3     1  UNL1        0.0992
     20 C         140.7796  142.8503  161.9871 C.ar    1  UNL1       -0.0088
     21 C         139.3349  142.4638  161.8712 C.ar    1  UNL1       -0.0032
     22 C         138.2650  143.4241  162.2993 C.ar    1  UNL1       -0.0003
     23 C         138.6399  144.7708  162.8433 C.ar    1  UNL1       -0.0003
     24 C         140.0846  145.1572  162.9591 C.ar    1  UNL1       -0.0032
     25 C         141.1544  144.1970  162.5310 C.ar    1  UNL1       -0.0088
     26 C         142.6510  144.2981  162.5276 C.3     1  UNL1        0.0992
@<TRIPOS>BOND
     1     1     2    2
     2     2     3   am
     3     3    16    1
     4    16    17    1
     5    17    18    1
     6    18    19    1
     7    19    20    1
     8    20    21   ar
     9    21    22   ar
    10    22    23   ar
    11    23    24   ar
    12    24    25   ar
    13    25    26    1
    14     3     4    1
    15     4     5    1
    16     5     6    1
    17     6     7    1
    18     7     8   ar
    19     8     9   ar
    20     9    10   ar
    21    10    11   ar
    22    11    12   ar
    23    12    13   ar
    24    13    14   ar
    25    14    15   ar
    26     6     2   am
    27    15     7   ar
    28    26    18    1
    29    14    10   ar
    30    25    20   ar
@<TRIPOS>MOLECULE
*****
 26 30 0 0 0
SMALL
GASTEIGER

@<TRIPOS>ATOM
      1 O         137.9095  140.2141  164.7685 O.2     1  UNL1       -0.2520
      2 C         138.9256  139.2385  164.2529 C.2     1  UNL1        0.3111
      3 N         138.8551  138.4978  162.9505 N.am    1  UNL1       -0.2606
      4 C         140.0766  137.6339  162.8418 C.3     1  UNL1        0.1169
      5 C         140.9020  137.8408  164.0771 C.3     1  UNL1        0.1212
      6 N         140.1907  138.8325  164.9492 N.am    1  UNL1       -0.2414
      7 C         140.6617  139.3307  166.2833 C.ar    1  UNL1        0.0555
      8 C         142.1305  139.4498  166.5634 C.ar    1  UNL1        0.0181
      9 C         142.6016  139.9480  167.8975 C.ar    1  UNL1        0.0388
     10 C         141.6040  140.3271  168.9515 C.ar    1  UNL1        0.1455
     11 O         141.7687  140.8456  170.3494 O.2     1  UNL1       -0.4504
     12 C         140.4017  141.0470  170.9332 C.ar    1  UNL1        0.1796
     13 C         139.3921  140.6529  169.8961 C.ar    1  UNL1        0.0437
     14 C         140.1352  140.2080  168.6713 C.ar    1  UNL1        0.0389
     15 C         139.6640  139.7098  167.3372 C.ar    1  UNL1        0.0181
     16 C         137.7561  138.6025  161.9350 C.3     1  UNL1        0.1123
     17 C         137.7134  139.7695  160.9936 C.3     1  UNL1        0.0944
     18 N         138.3800  141.0599  161.3681 N.3     1  UNL1       -0.2637
     19 C         137.7258  142.2249  162.0498 C.3     1  UNL1        0.0992
     20 C         138.7594  143.2970  162.2297 C.ar    1  UNL1       -0.0088
     21 C         138.6901  144.6658  162.8393 C.ar    1  UNL1       -0.0032
     22 C         139.9140  145.5321  162.8783 C.ar    1  UNL1       -0.0003
     23 C         141.2071  145.0297  162.3078 C.ar    1  UNL1       -0.0003
     24 C         141.2763  143.6610  161.6982 C.ar    1  UNL1       -0.0032
     25 C         140.0524  142.7946  161.6592 C.ar    1  UNL1       -0.0088
     26 C         139.8180  141.4120  161.1267 C.3     1  UNL1        0.0992
@<TRIPOS>BOND
     1     1     2    2
     2     2     3   am
     3     3    16    1
     4    16    17    1
     5    17    18    1
     6    18    19    1
     7    19    20    1
     8    20    21   ar
     9    21    22   ar
    10    22    23   ar
    11    23    24   ar
    12    24    25   ar
    13    25    26    1
    14     3     4    1
    15     4     5    1
    16     5     6    1
    17     6     7    1
    18     7     8   ar
    19     8     9   ar
    20     9    10   ar
    21    10    11   ar
    22    11    12   ar
    23    12    13   ar
    24    13    14   ar
    25    14    15   ar
    26     6     2   am
    27    15     7   ar
    28    26    18    1
    29    14    10   ar
    30    25    20   ar
@<TRIPOS>MOLECULE
*****
 26 30 0 0 0
SMALL
GASTEIGER

@<TRIPOS>ATOM
      1 O         138.6933  140.2155  162.3898 O.2     1  UNL1       -0.2520
      2 C         139.9556  139.4247  162.5665 C.2     1  UNL1        0.3111
      3 N         140.9139  139.0391  161.4789 N.am    1  UNL1       -0.2606
      4 C         142.0319  138.2568  162.1021 C.3     1  UNL1        0.1169
      5 C         141.7643  138.1589  163.5748 C.3     1  UNL1        0.1212
      6 N         140.4811  138.8807  163.8618 N.am    1  UNL1       -0.2414
      7 C         139.8367  139.0320  165.2078 C.ar    1  UNL1        0.0555
      8 C         138.5104  138.3866  165.4811 C.ar    1  UNL1        0.0181
      9 C         137.8659  138.5378  166.8271 C.ar    1  UNL1        0.0388
     10 C         138.5476  139.3344  167.8998 C.ar    1  UNL1        0.1455
     11 O         138.1582  139.6554  169.3124 O.2     1  UNL1       -0.4504
     12 C         139.2438  140.4991  169.9121 C.ar    1  UNL1        0.1796
     13 C         140.3041  140.6996  168.8702 C.ar    1  UNL1        0.0437
     14 C         139.8738  139.9797  167.6265 C.ar    1  UNL1        0.0389
     15 C         140.5184  139.8285  166.2805 C.ar    1  UNL1        0.0181
     16 C         140.7783  139.3766  160.0237 C.3     1  UNL1        0.1123
     17 C         141.1245  140.7527  159.5374 C.3     1  UNL1        0.0944
     18 N         141.5809  141.7992  160.5103 N.3     1  UNL1       -0.2637
     19 C         142.9953  142.0390  160.9483 C.3     1  UNL1        0.0992
     20 C         142.9916  143.1776  161.9247 C.ar    1  UNL1       -0.0088
     21 C         144.0952  143.8519  162.6845 C.ar    1  UNL1       -0.0032
     22 C         143.7821  144.9901  163.6098 C.ar    1  UNL1       -0.0003
     23 C         142.3652  145.4541  163.7754 C.ar    1  UNL1       -0.0003
     24 C         141.2616  144.7798  163.0157 C.ar    1  UNL1       -0.0032
     25 C         141.5748  143.6416  162.0903 C.ar    1  UNL1       -0.0088
     26 C         140.7029  142.7896  161.2162 C.3     1  UNL1        0.0992
@<TRIPOS>BOND
     1     1     2    2
     2     2     3   am
     3     3    16    1
     4    16    17    1
     5    17    18    1
     6    18    19    1
     7    19    20    1
     8    20    21   ar
     9    21    22   ar
    10    22    23   ar
    11    23    24   ar
    12    24    25   ar
    13    25    26    1
    14     3     4    1
    15     4     5    1
    16     5     6    1
    17     6     7    1
    18     7     8   ar
    19     8     9   ar
    20     9    10   ar
    21    10    11   ar
    22    11    12   ar
    23    12    13   ar
    24    13    14   ar
    25    14    15   ar
    26     6     2   am
    27    15     7   ar
    28    26    18    1
    29    14    10   ar
    30    25    20   ar
@<TRIPOS>MOLECULE
*****
 26 30 0 0 0
SMALL
GASTEIGER

@<TRIPOS>ATOM
      1 O         141.1065  137.9954  165.2289 O.2     1  UNL1       -0.2520
      2 C         139.9931  138.9041  164.7992 C.2     1  UNL1        0.3111
      3 N         139.2778  138.8600  163.4815 N.am    1  UNL1       -0.2606
      4 C         138.2421  139.9451  163.4797 C.3     1  UNL1        0.1169
      5 C         138.3174  140.6598  164.7964 C.3     1  UNL1        0.1212
      6 N         139.3995  140.0164  165.6119 N.am    1  UNL1       -0.2414
      7 C         139.8151  140.4154  166.9968 C.ar    1  UNL1        0.0555
      8 C         139.0682  139.8867  168.1854 C.ar    1  UNL1        0.0181
      9 C         139.4837  140.2856  169.5704 C.ar    1  UNL1        0.0388
     10 C         140.6461  141.2132  169.7668 C.ar    1  UNL1        0.1455
     11 O         141.2817  141.7782  171.0024 O.2     1  UNL1       -0.4504
     12 C         142.4214  142.6560  170.5775 C.ar    1  UNL1        0.1796
     13 C         142.4901  142.6336  169.0792 C.ar    1  UNL1        0.0437
     14 C         141.3929  141.7418  168.5782 C.ar    1  UNL1        0.0389
     15 C         140.9774  141.3429  167.1932 C.ar    1  UNL1        0.0181
     16 C         139.5503  137.8995  162.3621 C.3     1  UNL1        0.1123
     17 C         140.7398  138.1037  161.4714 C.3     1  UNL1        0.0944
     18 N         141.7729  139.1325  161.8240 N.3     1  UNL1       -0.2637
     19 C         143.0452  138.8820  162.5780 C.3     1  UNL1        0.0992
     20 C         143.7737  140.1871  162.7045 C.ar    1  UNL1       -0.0088
     21 C         145.0794  140.5495  163.3478 C.ar    1  UNL1       -0.0032
     22 C         145.5631  141.9689  163.3151 C.ar    1  UNL1       -0.0003
     23 C         144.7411  143.0260  162.6392 C.ar    1  UNL1       -0.0003
     24 C         143.4354  142.6637  161.9959 C.ar    1  UNL1       -0.0032
     25 C         142.9518  141.2442  162.0285 C.ar    1  UNL1       -0.0088
     26 C         141.7152  140.5924  161.4843 C.3     1  UNL1        0.0992
@<TRIPOS>BOND
     1     1     2    2
     2     2     3   am
     3     3    16    1
     4    16    17    1
     5    17    18    1
     6    18    19    1
     7    19    20    1
     8    20    21   ar
     9    21    22   ar
    10    22    23   ar
    11    23    24   ar
    12    24    25   ar
    13    25    26    1
    14     3     4    1
    15     4     5    1
    16     5     6    1
    17     6     7    1
    18     7     8   ar
    19     8     9   ar
    20     9    10   ar
    21    10    11   ar
    22    11    12   ar
    23    12    13   ar
    24    13    14   ar
    25    14    15   ar
    26     6     2   am
    27    15     7   ar
    28    26    18    1
    29    14    10   ar
    30    25    20   ar
@<TRIPOS>MOLECULE
*****
 26 30 0 0 0
SMALL
GASTEIGER

@<TRIPOS>ATOM
      1 O         143.9765  139.9295  164.8005 O.2     1  UNL1       -0.2520
      2 C         142.8503  139.0448  164.3546 C.2     1  UNL1        0.3111
      3 N         142.7740  138.3030  163.0530 N.am    1  UNL1       -0.2606
      4 C         141.4792  137.5462  163.0260 C.3     1  UNL1        0.1169
      5 C         140.7553  137.8203  164.3109 C.3     1  UNL1        0.1212
      6 N         141.6026  138.7464  165.1320 N.am    1  UNL1       -0.2414
      7 C         141.2621  139.2804  166.4917 C.ar    1  UNL1        0.0555
      8 C         139.8417  139.6267  166.8272 C.ar    1  UNL1        0.0181
      9 C         139.5011  140.1607  168.1870 C.ar    1  UNL1        0.0388
     10 C         140.5809  140.3483  169.2111 C.ar    1  UNL1        0.1455
     11 O         140.5479  140.8516  170.6238 O.2     1  UNL1       -0.4504
     12 C         141.9478  140.8163  171.1613 C.ar    1  UNL1        0.1796
     13 C         142.8461  140.2912  170.0808 C.ar    1  UNL1        0.0437
     14 C         142.0012  140.0020  168.8755 C.ar    1  UNL1        0.0389
     15 C         142.3419  139.4680  167.5158 C.ar    1  UNL1        0.0181
     16 C         143.8106  138.3159  161.9689 C.3     1  UNL1        0.1123
     17 C         144.0141  139.5496  161.1404 C.3     1  UNL1        0.0944
     18 N         143.5908  140.8874  161.6706 N.3     1  UNL1       -0.2637
     19 C         142.1956  141.4381  161.6616 C.3     1  UNL1        0.0992
     20 C         142.2310  142.8004  162.2884 C.ar    1  UNL1       -0.0088
     21 C         141.1559  143.8134  162.5493 C.ar    1  UNL1       -0.0032
     22 C         141.4979  145.1175  163.2067 C.ar    1  UNL1       -0.0003
     23 C         142.9149  145.4087  163.6031 C.ar    1  UNL1       -0.0003
     24 C         143.9900  144.3958  163.3421 C.ar    1  UNL1       -0.0032
     25 C         143.6480  143.0917  162.6848 C.ar    1  UNL1       -0.0088
     26 C         144.4884  141.9093  162.3030 C.3     1  UNL1        0.0992
@<TRIPOS>BOND
     1     1     2    2
     2     2     3   am
     3     3    16    1
     4    16    17    1
     5    17    18    1
     6    18    19    1
     7    19    20    1
     8    20    21   ar
     9    21    22   ar
    10    22    23   ar
    11    23    24   ar
    12    24    25   ar
    13    25    26    1
    14     3     4    1
    15     4     5    1
    16     5     6    1
    17     6     7    1
    18     7     8   ar
    19     8     9   ar
    20     9    10   ar
    21    10    11   ar
    22    11    12   ar
    23    12    13   ar
    24    13    14   ar
    25    14    15   ar
    26     6     2   am
    27    15     7   ar
    28    26    18    1
    29    14    10   ar
    30    25    20   ar
@<TRIPOS>MOLECULE
*****
 26 30 0 0 0
SMALL
GASTEIGER

@<TRIPOS>ATOM
      1 O         139.8822  143.3473  164.9916 O.2     1  UNL1       -0.2520
      2 C         141.2878  143.6409  164.5579 C.2     1  UNL1        0.3111
      3 N         141.7000  144.6507  163.5281 N.am    1  UNL1       -0.2606
      4 C         143.1950  144.6101  163.4116 C.3     1  UNL1        0.1169
      5 C         143.7066  143.5753  164.3695 C.3     1  UNL1        0.1212
      6 N         142.5279  142.9763  165.0779 N.am    1  UNL1       -0.2414
      7 C         142.5802  141.9015  166.1228 C.ar    1  UNL1        0.0555
      8 C         142.4035  140.4646  165.7301 C.ar    1  UNL1        0.0181
      9 C         142.4558  139.3896  166.7750 C.ar    1  UNL1        0.0388
     10 C         142.6848  139.7516  168.2125 C.ar    1  UNL1        0.1455
     11 O         142.7847  138.9161  169.4544 O.2     1  UNL1       -0.4504
     12 C         143.0232  139.8366  170.6145 C.ar    1  UNL1        0.1796
     13 C         143.0707  141.2410  170.0897 C.ar    1  UNL1        0.0437
     14 C         142.8616  141.1885  168.6052 C.ar    1  UNL1        0.0389
     15 C         142.8093  142.2634  167.5603 C.ar    1  UNL1        0.0181
     16 C         140.7791  145.5441  162.7512 C.3     1  UNL1        0.1123
     17 C         140.0463  145.0092  161.5567 C.3     1  UNL1        0.0944
     18 N         139.7160  143.5485  161.4716 N.3     1  UNL1       -0.2637
     19 C         140.6246  142.4671  160.9666 C.3     1  UNL1        0.0992
     20 C         139.8894  141.1629  161.0595 C.ar    1  UNL1       -0.0088
     21 C         140.2850  139.7603  160.7046 C.ar    1  UNL1       -0.0032
     22 C         139.3175  138.6330  160.9120 C.ar    1  UNL1       -0.0003
     23 C         137.9544  138.9083  161.4744 C.ar    1  UNL1       -0.0003
     24 C         137.5589  140.3110  161.8293 C.ar    1  UNL1       -0.0032
     25 C         138.5263  141.4383  161.6218 C.ar    1  UNL1       -0.0088
     26 C         138.4192  142.9126  161.8765 C.3     1  UNL1        0.0992
@<TRIPOS>BOND
     1     1     2    2
     2     2     3   am
     3     3    16    1
     4    16    17    1
     5    17    18    1
     6    18    19    1
     7    19    20    1
     8    20    21   ar
     9    21    22   ar
    10    22    23   ar
    11    23    24   ar
    12    24    25   ar
    13    25    26    1
    14     3     4    1
    15     4     5    1
    16     5     6    1
    17     6     7    1
    18     7     8   ar
    19     8     9   ar
    20     9    10   ar
    21    10    11   ar
    22    11    12   ar
    23    12    13   ar
    24    13    14   ar
    25    14    15   ar
    26     6     2   am
    27    15     7   ar
    28    26    18    1
    29    14    10   ar
    30    25    20   ar
@<TRIPOS>MOLECULE
*****
 26 30 0 0 0
SMALL
GASTEIGER

@<TRIPOS>ATOM
      1 O         140.1115  137.8054  163.0808 O.2     1  UNL1       -0.2520
      2 C         139.2790  138.9999  162.7197 C.2     1  UNL1        0.3111
      3 N         138.9108  139.4305  161.3308 N.am    1  UNL1       -0.2606
      4 C         138.0728  140.6702  161.4368 C.3     1  UNL1        0.1169
      5 C         137.9233  141.0056  162.8912 C.3     1  UNL1        0.1212
      6 N         138.6688  139.9733  163.6840 N.am    1  UNL1       -0.2414
      7 C         138.7838  139.9233  165.1787 C.ar    1  UNL1        0.0555
      8 C         137.9792  138.9271  165.9599 C.ar    1  UNL1        0.0181
      9 C         138.0942  138.8770  167.4546 C.ar    1  UNL1        0.0388
     10 C         139.0136  139.8232  168.1682 C.ar    1  UNL1        0.1455
     11 O         139.3331  140.0075  169.6222 O.2     1  UNL1       -0.4504
     12 C         140.3350  141.1177  169.7397 C.ar    1  UNL1        0.1796
     13 C         140.6348  141.6195  168.3583 C.ar    1  UNL1        0.0437
     14 C         139.8182  140.8195  167.3870 C.ar    1  UNL1        0.0389
     15 C         139.7032  140.8696  165.8923 C.ar    1  UNL1        0.0181
     16 C         139.3102  138.7423  160.0593 C.3     1  UNL1        0.1123
     17 C         140.6828  138.9525  159.4920 C.3     1  UNL1        0.0944
     18 N         141.6745  139.8065  160.2248 N.3     1  UNL1       -0.2637
     19 C         141.7337  141.3052  160.2028 C.3     1  UNL1        0.0992
     20 C         142.8770  141.7368  161.0727 C.ar    1  UNL1       -0.0088
     21 C         143.4121  143.0924  161.4274 C.ar    1  UNL1       -0.0032
     22 C         144.5947  143.2161  162.3419 C.ar    1  UNL1       -0.0003
     23 C         145.2421  141.9841  162.9015 C.ar    1  UNL1       -0.0003
     24 C         144.7069  140.6285  162.5467 C.ar    1  UNL1       -0.0032
     25 C         143.5244  140.5049  161.6323 C.ar    1  UNL1       -0.0088
     26 C         142.7812  139.3119  161.1083 C.3     1  UNL1        0.0992
@<TRIPOS>BOND
     1     1     2    2
     2     2     3   am
     3     3    16    1
     4    16    17    1
     5    17    18    1
     6    18    19    1
     7    19    20    1
     8    20    21   ar
     9    21    22   ar
    10    22    23   ar
    11    23    24   ar
    12    24    25   ar
    13    25    26    1
    14     3     4    1
    15     4     5    1
    16     5     6    1
    17     6     7    1
    18     7     8   ar
    19     8     9   ar
    20     9    10   ar
    21    10    11   ar
    22    11    12   ar
    23    12    13   ar
    24    13    14   ar
    25    14    15   ar
    26     6     2   am
    27    15     7   ar
    28    26    18    1
    29    14    10   ar
    30    25    20   ar
