@<TRIPOS>MOLECULE
*****
 36 39 0 0 0
SMALL
GASTEIGER

@<TRIPOS>ATOM
      1 C         142.2448  141.3833  168.0968 C.3     1  UNL1        0.0705
      2 C         143.0920  141.9349  169.2049 C.3     1  UNL1        0.0082
      3 C         142.5573  143.0241  170.0869 C.3     1  UNL1        0.0005
      4 C         141.1754  143.5617  169.8606 C.3     1  UNL1        0.0005
      5 C         140.3281  143.0102  168.7525 C.3     1  UNL1        0.0095
      6 C         140.8628  141.9210  167.8706 C.3     1  UNL1        0.0840
      7 C         140.0155  141.3694  166.7625 C.2     1  UNL1        0.2261
      8 O         139.2309  140.1086  166.9747 O.2     1  UNL1       -0.2748
      9 N         139.9529  142.0785  165.4422 N.am    1  UNL1       -0.2814
     10 H         140.4678  142.9060  165.3030 H       1  UNL1        0.1549
     11 C         139.1056  141.5269  164.3341 C.ar    1  UNL1        0.0934
     12 C         139.1114  140.1102  163.8414 C.ar    1  UNL1        0.1115
     13 N         138.1132  140.0029  162.7269 N.ar    1  UNL1       -0.2459
     14 C         137.7938  138.7629  161.9457 C.3     1  UNL1        0.1538
     15 N         137.4904  141.3534  162.5308 N.ar    1  UNL1       -0.1632
     16 C         138.1038  142.2953  163.5241 C.ar    1  UNL1        0.1686
     17 C         137.7733  143.7501  163.6800 C.2     1  UNL1        0.2635
     18 N         137.5472  144.6021  162.4665 N.am    1  UNL1       -0.3240
     19 O         137.6690  144.3529  165.0497 O.2     1  UNL1       -0.2686
     20 H         137.6156  144.2065  161.5676 H       1  UNL1        0.1453
     21 H         137.3303  145.5569  162.5689 H       1  UNL1        0.1453
     22 C         142.7795  140.2942  167.2149 C.2     1  UNL1        0.1731
     23 O         143.0314  138.9276  167.7797 O.2     1  UNL1       -0.2913
     24 C         143.6277  141.1261  162.8746 C.ar    1  UNL1        0.0194
     25 C         143.0090  139.8217  163.2812 C.ar    1  UNL1        0.0016
     26 C         142.7262  139.5443  164.7279 C.ar    1  UNL1        0.0029
     27 C         143.0622  140.5715  165.7681 C.ar    1  UNL1        0.0347
     28 C         143.6810  141.8760  165.3615 C.ar    1  UNL1        0.0029
     29 C         143.9638  142.1533  163.9148 C.ar    1  UNL1        0.0016
     30 C         143.9616  140.5961  157.6317 C.3     1  UNL1        0.0515
     31 C         144.0640  141.1598  159.0179 C.ar    1  UNL1        0.0535
     32 C         143.6210  140.4818  160.2804 C.ar    1  UNL1        0.0349
     33 C         143.9105  141.4035  161.4278 C.ar    1  UNL1        0.1018
     34 N         144.5325  142.6513  160.8745 N.ar    1  UNL1       -0.1730
     35 N         144.6273  142.5007  159.3851 N.ar    1  UNL1       -0.2798
     36 H         144.9948  143.1652  158.7585 H       1  UNL1        0.1886
@<TRIPOS>BOND
     1    30    31    1
     2    31    32   ar
     3    32    33   ar
     4    33    24    1
     5    24    25   ar
     6    25    26   ar
     7    26    27   ar
     8    27    22    1
     9    22    23    2
    10     1    22    1
    11     1     2    1
    12     2     3    1
    13     3     4    1
    14     4     5    1
    15     5     6    1
    16     6     7    1
    17     7     8    2
    18     7     9   am
    19     9    11    1
    20    11    12   ar
    21    12    13   ar
    22    13    14    1
    23    13    15   ar
    24    15    16   ar
    25    16    17    1
    26    17    18   am
    27    17    19    2
    28    27    28   ar
    29    28    29   ar
    30    33    34   ar
    31    34    35   ar
    32    35    31   ar
    33    29    24   ar
    34     6     1    1
    35    16    11   ar
    36     9    10    1
    37    18    20    1
    38    18    21    1
    39    35    36    1
@<TRIPOS>MOLECULE
*****
 36 39 0 0 0
SMALL
GASTEIGER

@<TRIPOS>ATOM
      1 C         141.1432  140.3824  168.7300 C.3     1  UNL1        0.0705
      2 C         141.7619  139.5446  169.8095 C.3     1  UNL1        0.0082
      3 C         142.9924  140.0257  170.5198 C.3     1  UNL1        0.0005
      4 C         143.6042  141.3445  170.1506 C.3     1  UNL1        0.0005
      5 C         142.9856  142.1823  169.0710 C.3     1  UNL1        0.0095
      6 C         141.7551  141.7013  168.3607 C.3     1  UNL1        0.0840
      7 C         141.1365  142.5391  167.2812 C.2     1  UNL1        0.2261
      8 O         139.9413  143.3926  167.5864 O.2     1  UNL1       -0.2748
      9 N         141.7130  142.5234  165.8965 N.am    1  UNL1       -0.2814
     10 H         142.4975  141.9632  165.6963 H       1  UNL1        0.1549
     11 C         141.0944  143.3611  164.8170 C.ar    1  UNL1        0.0934
     12 C         139.6377  143.4068  164.4621 C.ar    1  UNL1        0.1115
     13 N         139.4668  144.3742  163.3285 N.ar    1  UNL1       -0.2459
     14 C         138.1722  144.7274  162.6584 C.3     1  UNL1        0.1538
     15 N         140.8180  144.9265  162.9829 N.ar    1  UNL1       -0.1632
     16 C         141.8238  144.3004  163.9028 C.ar    1  UNL1        0.1686
     17 C         143.3000  144.5667  163.9076 C.2     1  UNL1        0.2635
     18 N         143.9226  145.3600  162.7973 N.am    1  UNL1       -0.3240
     19 O         144.1536  144.0398  165.0230 O.2     1  UNL1       -0.2686
     20 H         143.3625  145.7058  162.0653 H       1  UNL1        0.1453
     21 H         144.8915  145.5348  162.8005 H       1  UNL1        0.1453
     22 C         139.9128  139.9014  168.0197 C.2     1  UNL1        0.1731
     23 O         138.6430  139.6783  168.7865 O.2     1  UNL1       -0.2913
     24 C         140.0306  139.1274  163.5883 C.ar    1  UNL1        0.0194
     25 C         141.2117  138.7746  164.4429 C.ar    1  UNL1        0.0016
     26 C         141.1725  139.0326  165.9200 C.ar    1  UNL1        0.0029
     27 C         139.9520  139.6434  166.5425 C.ar    1  UNL1        0.0347
     28 C         138.7709  139.9962  165.6879 C.ar    1  UNL1        0.0029
     29 C         138.8102  139.7382  164.2108 C.ar    1  UNL1        0.0016
     30 C         141.7893  138.3820  158.6657 C.3     1  UNL1        0.0515
     31 C         140.8783  138.5268  159.8485 C.ar    1  UNL1        0.0535
     32 C         141.3032  138.8057  161.2597 C.ar    1  UNL1        0.0349
     33 C         140.0698  138.8695  162.1112 C.ar    1  UNL1        0.1018
     34 N         138.8827  138.6299  161.2261 N.ar    1  UNL1       -0.1730
     35 N         139.3823  138.4181  159.8277 N.ar    1  UNL1       -0.2798
     36 H         138.8261  138.2392  159.0354 H       1  UNL1        0.1886
@<TRIPOS>BOND
     1    30    31    1
     2    31    32   ar
     3    32    33   ar
     4    33    24    1
     5    24    25   ar
     6    25    26   ar
     7    26    27   ar
     8    27    22    1
     9    22    23    2
    10     1    22    1
    11     1     2    1
    12     2     3    1
    13     3     4    1
    14     4     5    1
    15     5     6    1
    16     6     7    1
    17     7     8    2
    18     7     9   am
    19     9    11    1
    20    11    12   ar
    21    12    13   ar
    22    13    14    1
    23    13    15   ar
    24    15    16   ar
    25    16    17    1
    26    17    18   am
    27    17    19    2
    28    27    28   ar
    29    28    29   ar
    30    33    34   ar
    31    34    35   ar
    32    35    31   ar
    33    29    24   ar
    34     6     1    1
    35    16    11   ar
    36     9    10    1
    37    18    20    1
    38    18    21    1
    39    35    36    1
@<TRIPOS>MOLECULE
*****
 36 39 0 0 0
SMALL
GASTEIGER

@<TRIPOS>ATOM
      1 C         140.2409  139.8923  167.3419 C.3     1  UNL1        0.0705
      2 C         139.8461  140.2006  168.7558 C.3     1  UNL1        0.0082
      3 C         140.8664  140.1251  169.8529 C.3     1  UNL1        0.0005
      4 C         142.2813  139.7411  169.5360 C.3     1  UNL1        0.0005
      5 C         142.6761  139.4328  168.1221 C.3     1  UNL1        0.0095
      6 C         141.6560  139.5083  167.0251 C.3     1  UNL1        0.0840
      7 C         142.0507  139.1999  165.6112 C.2     1  UNL1        0.2261
      8 O         141.8318  137.8244  165.0544 O.2     1  UNL1       -0.2748
      9 N         142.6644  140.2671  164.7541 N.am    1  UNL1       -0.2814
     10 H         142.8081  141.1699  165.1196 H       1  UNL1        0.1549
     11 C         143.0592  139.9587  163.3403 C.ar    1  UNL1        0.0934
     12 C         142.4826  138.8731  162.4806 C.ar    1  UNL1        0.1115
     13 N         143.1669  138.9252  161.1468 N.ar    1  UNL1       -0.2459
     14 C         142.8988  138.0187  159.9823 C.3     1  UNL1        0.1538
     15 N         144.1665  140.0431  161.1821 N.ar    1  UNL1       -0.1632
     16 C         144.0999  140.6818  162.5377 C.ar    1  UNL1        0.1686
     17 C         144.9286  141.8402  163.0082 C.2     1  UNL1        0.2635
     18 N         146.1377  141.5995  163.8625 N.am    1  UNL1       -0.3240
     19 O         144.5480  143.2395  162.6243 O.2     1  UNL1       -0.2686
     20 H         146.3875  140.6812  164.1144 H       1  UNL1        0.1453
     21 H         146.6816  142.3599  164.1712 H       1  UNL1        0.1453
     22 C         139.2207  139.9678  166.2449 C.2     1  UNL1        0.1731
     23 O         138.0821  138.9919  166.2111 O.2     1  UNL1       -0.2913
     24 C         139.5760  143.1223  163.0554 C.ar    1  UNL1        0.0194
     25 C         139.7829  143.4856  164.4959 C.ar    1  UNL1        0.0016
     26 C         139.6645  142.4342  165.5590 C.ar    1  UNL1        0.0029
     27 C         139.3392  141.0193  165.1817 C.ar    1  UNL1        0.0347
     28 C         139.1322  140.6560  163.7412 C.ar    1  UNL1        0.0029
     29 C         139.2507  141.7074  162.6780 C.ar    1  UNL1        0.0016
     30 C         140.8888  145.6328  158.5994 C.3     1  UNL1        0.0515
     31 C         140.2979  145.3277  159.9440 C.ar    1  UNL1        0.0535
     32 C         140.4455  144.0409  160.7005 C.ar    1  UNL1        0.0349
     33 C         139.6944  144.1738  161.9921 C.ar    1  UNL1        0.1018
     34 N         139.0826  145.5427  162.0339 N.ar    1  UNL1       -0.1730
     35 N         139.4555  146.2558  160.7680 N.ar    1  UNL1       -0.2798
     36 H         139.1935  147.1722  160.5214 H       1  UNL1        0.1886
@<TRIPOS>BOND
     1    30    31    1
     2    31    32   ar
     3    32    33   ar
     4    33    24    1
     5    24    25   ar
     6    25    26   ar
     7    26    27   ar
     8    27    22    1
     9    22    23    2
    10     1    22    1
    11     1     2    1
    12     2     3    1
    13     3     4    1
    14     4     5    1
    15     5     6    1
    16     6     7    1
    17     7     8    2
    18     7     9   am
    19     9    11    1
    20    11    12   ar
    21    12    13   ar
    22    13    14    1
    23    13    15   ar
    24    15    16   ar
    25    16    17    1
    26    17    18   am
    27    17    19    2
    28    27    28   ar
    29    28    29   ar
    30    33    34   ar
    31    34    35   ar
    32    35    31   ar
    33    29    24   ar
    34     6     1    1
    35    16    11   ar
    36     9    10    1
    37    18    20    1
    38    18    21    1
    39    35    36    1
@<TRIPOS>MOLECULE
*****
 36 39 0 0 0
SMALL
GASTEIGER

@<TRIPOS>ATOM
      1 C         139.5326  138.4676  164.3708 C.3     1  UNL1        0.0705
      2 C         138.5130  137.6898  165.1489 C.3     1  UNL1        0.0082
      3 C         138.1282  138.1300  166.5304 C.3     1  UNL1        0.0005
      4 C         138.7630  139.3478  167.1336 C.3     1  UNL1        0.0005
      5 C         139.7826  140.1255  166.3554 C.3     1  UNL1        0.0095
      6 C         140.1674  139.6855  164.9741 C.3     1  UNL1        0.0840
      7 C         141.1870  140.4632  164.1959 C.2     1  UNL1        0.2261
      8 O         142.6494  140.2456  164.4489 O.2     1  UNL1       -0.2748
      9 N         140.7442  141.4585  163.1648 N.am    1  UNL1       -0.2814
     10 H         139.7844  141.6013  162.9987 H       1  UNL1        0.1549
     11 C         141.7638  142.2363  162.3866 C.ar    1  UNL1        0.0934
     12 C         142.7267  141.6718  161.3845 C.ar    1  UNL1        0.1115
     13 N         143.5575  142.8017  160.8525 N.ar    1  UNL1       -0.2459
     14 C         144.6465  142.6887  159.8272 C.3     1  UNL1        0.1538
     15 N         143.1081  144.0645  161.5258 N.ar    1  UNL1       -0.1632
     16 C         141.9995  143.7150  162.4740 C.ar    1  UNL1        0.1686
     17 C         141.2571  144.6757  163.3548 C.2     1  UNL1        0.2635
     18 N         141.0198  146.0840  162.8961 N.am    1  UNL1       -0.3240
     19 O         140.7518  144.2281  164.6944 O.2     1  UNL1       -0.2686
     20 H         141.3514  146.3778  162.0170 H       1  UNL1        0.1453
     21 H         140.5325  146.7145  163.4743 H       1  UNL1        0.1453
     22 C         139.9174  138.0275  162.9894 C.2     1  UNL1        0.1731
     23 O         140.8519  136.8688  162.8045 O.2     1  UNL1       -0.2913
     24 C         138.2684  140.1832  159.4001 C.ar    1  UNL1        0.0194
     25 C         137.4145  139.9933  160.6186 C.ar    1  UNL1        0.0016
     26 C         137.9642  139.2747  161.8150 C.ar    1  UNL1        0.0029
     27 C         139.3678  138.7461  161.7929 C.ar    1  UNL1        0.0347
     28 C         140.2216  138.9360  160.5744 C.ar    1  UNL1        0.0029
     29 C         139.6719  139.6546  159.3780 C.ar    1  UNL1        0.0016
     30 C         137.3657  143.8793  155.7388 C.3     1  UNL1        0.0515
     31 C         137.3038  142.6008  156.5207 C.ar    1  UNL1        0.0535
     32 C         138.0928  142.2839  157.7564 C.ar    1  UNL1        0.0349
     33 C         137.7187  140.9018  158.2036 C.ar    1  UNL1        0.1018
     34 N         136.6984  140.3645  157.2443 N.ar    1  UNL1       -0.1730
     35 N         136.4419  141.4145  156.2042 N.ar    1  UNL1       -0.2798
     36 H         135.8176  141.3384  155.4468 H       1  UNL1        0.1886
@<TRIPOS>BOND
     1    30    31    1
     2    31    32   ar
     3    32    33   ar
     4    33    24    1
     5    24    25   ar
     6    25    26   ar
     7    26    27   ar
     8    27    22    1
     9    22    23    2
    10     1    22    1
    11     1     2    1
    12     2     3    1
    13     3     4    1
    14     4     5    1
    15     5     6    1
    16     6     7    1
    17     7     8    2
    18     7     9   am
    19     9    11    1
    20    11    12   ar
    21    12    13   ar
    22    13    14    1
    23    13    15   ar
    24    15    16   ar
    25    16    17    1
    26    17    18   am
    27    17    19    2
    28    27    28   ar
    29    28    29   ar
    30    33    34   ar
    31    34    35   ar
    32    35    31   ar
    33    29    24   ar
    34     6     1    1
    35    16    11   ar
    36     9    10    1
    37    18    20    1
    38    18    21    1
    39    35    36    1
@<TRIPOS>MOLECULE
*****
 36 39 0 0 0
SMALL
GASTEIGER

@<TRIPOS>ATOM
      1 C         143.5637  141.9343  163.0657 C.3     1  UNL1        0.0705
      2 C         144.3526  143.0393  162.4281 C.3     1  UNL1        0.0082
      3 C         144.0702  144.4676  162.7894 C.3     1  UNL1        0.0005
      4 C         142.9988  144.7907  163.7882 C.3     1  UNL1        0.0005
      5 C         142.2099  143.6857  164.4258 C.3     1  UNL1        0.0095
      6 C         142.4922  142.2576  164.0646 C.3     1  UNL1        0.0840
      7 C         141.7033  141.1526  164.7021 C.2     1  UNL1        0.2261
      8 O         142.2482  140.4386  165.9036 O.2     1  UNL1       -0.2748
      9 N         140.3695  140.7615  164.1383 N.am    1  UNL1       -0.2814
     10 H         140.0118  141.2301  163.3498 H       1  UNL1        0.1549
     11 C         139.5805  139.6565  164.7759 C.ar    1  UNL1        0.0934
     12 C         138.7435  139.7723  166.0152 C.ar    1  UNL1        0.1115
     13 N         138.1357  138.4291  166.2914 N.ar    1  UNL1       -0.2459
     14 C         137.2262  138.0912  167.4353 C.3     1  UNL1        0.1538
     15 N         138.5970  137.4830  165.2226 N.ar    1  UNL1       -0.1632
     16 C         139.4900  138.2416  164.2860 C.ar    1  UNL1        0.1686
     17 C         140.1725  137.6833  163.0726 C.2     1  UNL1        0.2635
     18 N         141.4896  136.9790  163.2104 N.am    1  UNL1       -0.3240
     19 O         139.5379  137.8294  161.7212 O.2     1  UNL1       -0.2686
     20 H         141.9061  136.8831  164.0972 H       1  UNL1        0.1453
     21 H         141.9376  136.6126  162.4139 H       1  UNL1        0.1453
     22 C         143.8461  140.5062  162.7044 C.2     1  UNL1        0.1731
     23 O         144.8239  139.7071  163.5139 O.2     1  UNL1       -0.2913
     24 C         141.7598  138.6188  159.1923 C.ar    1  UNL1        0.0194
     25 C         142.9124  137.9161  159.8461 C.ar    1  UNL1        0.0016
     26 C         143.6078  138.5452  161.0168 C.ar    1  UNL1        0.0029
     27 C         143.1506  139.8771  161.5337 C.ar    1  UNL1        0.0347
     28 C         141.9980  140.5798  160.8798 C.ar    1  UNL1        0.0029
     29 C         141.3026  139.9507  159.7091 C.ar    1  UNL1        0.0016
     30 C         140.8724  136.0361  154.6731 C.3     1  UNL1        0.0515
     31 C         140.6565  136.8025  155.9442 C.ar    1  UNL1        0.0535
     32 C         141.7271  137.2655  156.8873 C.ar    1  UNL1        0.0349
     33 C         141.0643  137.9897  158.0215 C.ar    1  UNL1        0.1018
     34 N         139.5841  137.9744  157.7793 N.ar    1  UNL1       -0.1730
     35 N         139.3320  137.2407  156.4956 N.ar    1  UNL1       -0.2798
     36 H         138.4518  137.0757  156.0866 H       1  UNL1        0.1886
@<TRIPOS>BOND
     1    30    31    1
     2    31    32   ar
     3    32    33   ar
     4    33    24    1
     5    24    25   ar
     6    25    26   ar
     7    26    27   ar
     8    27    22    1
     9    22    23    2
    10     1    22    1
    11     1     2    1
    12     2     3    1
    13     3     4    1
    14     4     5    1
    15     5     6    1
    16     6     7    1
    17     7     8    2
    18     7     9   am
    19     9    11    1
    20    11    12   ar
    21    12    13   ar
    22    13    14    1
    23    13    15   ar
    24    15    16   ar
    25    16    17    1
    26    17    18   am
    27    17    19    2
    28    27    28   ar
    29    28    29   ar
    30    33    34   ar
    31    34    35   ar
    32    35    31   ar
    33    29    24   ar
    34     6     1    1
    35    16    11   ar
    36     9    10    1
    37    18    20    1
    38    18    21    1
    39    35    36    1
@<TRIPOS>MOLECULE
*****
 36 39 0 0 0
SMALL
GASTEIGER

@<TRIPOS>ATOM
      1 C         141.4121  138.7177  161.5316 C.3     1  UNL1        0.0705
      2 C         142.2097  137.5972  160.9330 C.3     1  UNL1        0.0082
      3 C         143.0281  137.8353  159.6986 C.3     1  UNL1        0.0005
      4 C         143.0488  139.1938  159.0630 C.3     1  UNL1        0.0005
      5 C         142.2512  140.3142  159.6616 C.3     1  UNL1        0.0095
      6 C         141.4328  140.0762  160.8959 C.3     1  UNL1        0.0840
      7 C         140.6352  141.1966  161.4946 C.2     1  UNL1        0.2261
      8 O         139.1800  141.3430  161.1610 O.2     1  UNL1       -0.2748
      9 N         141.2926  142.1707  162.4267 N.am    1  UNL1       -0.2814
     10 H         142.2477  142.0746  162.6456 H       1  UNL1        0.1549
     11 C         140.4950  143.2911  163.0254 C.ar    1  UNL1        0.0934
     12 C         139.8250  143.2775  164.3674 C.ar    1  UNL1        0.1115
     13 N         139.1433  144.5999  164.5586 N.ar    1  UNL1       -0.2459
     14 C         138.3518  145.0179  165.7623 C.3     1  UNL1        0.1538
     15 N         139.3919  145.4308  163.3347 N.ar    1  UNL1       -0.1632
     16 C         140.2273  144.6219  162.3872 C.ar    1  UNL1        0.1686
     17 C         140.7102  145.0659  161.0382 C.2     1  UNL1        0.2635
     18 N         142.1716  145.0028  160.7066 N.am    1  UNL1       -0.3240
     19 O         139.7315  145.5731  160.0208 O.2     1  UNL1       -0.2686
     20 H         142.8140  144.6699  161.3743 H       1  UNL1        0.1453
     21 H         142.4885  145.2942  159.8212 H       1  UNL1        0.1453
     22 C         140.5937  138.4796  162.7659 C.2     1  UNL1        0.1731
     23 O         139.2932  137.7381  162.6721 O.2     1  UNL1       -0.2913
     24 C         142.0401  139.9901  166.7504 C.ar    1  UNL1        0.0194
     25 C         143.0136  139.4002  165.7737 C.ar    1  UNL1        0.0016
     26 C         142.5315  138.8967  164.4455 C.ar    1  UNL1        0.0029
     27 C         141.0758  138.9832  164.0942 C.ar    1  UNL1        0.0347
     28 C         140.1022  139.5731  165.0709 C.ar    1  UNL1        0.0029
     29 C         140.5844  140.0765  166.3991 C.ar    1  UNL1        0.0016
     30 C         143.3955  143.2112  170.7088 C.3     1  UNL1        0.0515
     31 C         143.1452  141.9743  169.8981 C.ar    1  UNL1        0.0535
     32 C         142.6133  141.9315  168.4963 C.ar    1  UNL1        0.0349
     33 C         142.5222  140.4937  168.0787 C.ar    1  UNL1        0.1018
     34 N         142.9979  139.6478  169.2224 N.ar    1  UNL1       -0.1730
     35 N         143.3829  140.5628  170.3469 N.ar    1  UNL1       -0.2798
     36 H         143.7306  140.2857  171.2253 H       1  UNL1        0.1886
@<TRIPOS>BOND
     1    30    31    1
     2    31    32   ar
     3    32    33   ar
     4    33    24    1
     5    24    25   ar
     6    25    26   ar
     7    26    27   ar
     8    27    22    1
     9    22    23    2
    10     1    22    1
    11     1     2    1
    12     2     3    1
    13     3     4    1
    14     4     5    1
    15     5     6    1
    16     6     7    1
    17     7     8    2
    18     7     9   am
    19     9    11    1
    20    11    12   ar
    21    12    13   ar
    22    13    14    1
    23    13    15   ar
    24    15    16   ar
    25    16    17    1
    26    17    18   am
    27    17    19    2
    28    27    28   ar
    29    28    29   ar
    30    33    34   ar
    31    34    35   ar
    32    35    31   ar
    33    29    24   ar
    34     6     1    1
    35    16    11   ar
    36     9    10    1
    37    18    20    1
    38    18    21    1
    39    35    36    1
@<TRIPOS>MOLECULE
*****
 36 39 0 0 0
SMALL
GASTEIGER

@<TRIPOS>ATOM
      1 C         141.3136  139.9335  166.2525 C.3     1  UNL1        0.0705
      2 C         142.3069  139.4488  167.2665 C.3     1  UNL1        0.0082
      3 C         143.5118  138.6723  166.8245 C.3     1  UNL1        0.0005
      4 C         143.7233  138.3804  165.3685 C.3     1  UNL1        0.0005
      5 C         142.7299  138.8651  164.3544 C.3     1  UNL1        0.0095
      6 C         141.5251  139.6416  164.7964 C.3     1  UNL1        0.0840
      7 C         140.5317  140.1262  163.7823 C.2     1  UNL1        0.2261
      8 O         139.2996  139.3204  163.4948 O.2     1  UNL1       -0.2748
      9 N         140.7705  141.4166  163.0557 N.am    1  UNL1       -0.2814
     10 H         141.5791  141.9454  163.2444 H       1  UNL1        0.1549
     11 C         139.7771  141.9012  162.0417 C.ar    1  UNL1        0.0934
     12 C         139.9513  141.8706  160.5522 C.ar    1  UNL1        0.1115
     13 N         138.7170  142.4520  159.9290 N.ar    1  UNL1       -0.2459
     14 C         138.4642  142.6149  158.4594 C.3     1  UNL1        0.1538
     15 N         137.7799  142.8420  161.0334 N.ar    1  UNL1       -0.1632
     16 C         138.4350  142.5016  162.3391 C.ar    1  UNL1        0.1686
     17 C         137.8507  142.7227  163.7028 C.2     1  UNL1        0.2635
     18 N         137.3556  141.5560  164.5048 N.am    1  UNL1       -0.3240
     19 O         137.7615  144.1108  164.2644 O.2     1  UNL1       -0.2686
     20 H         137.4141  140.6449  164.1362 H       1  UNL1        0.1453
     21 H         136.9721  141.7012  165.3998 H       1  UNL1        0.1453
     22 C         140.1087  140.7100  166.6944 C.2     1  UNL1        0.1731
     23 O         139.7546  141.9978  166.0118 O.2     1  UNL1       -0.2913
     24 C         137.5565  139.1760  170.0683 C.ar    1  UNL1        0.0194
     25 C         137.3290  138.6809  168.6708 C.ar    1  UNL1        0.0016
     26 C         138.1798  139.1922  167.5462 C.ar    1  UNL1        0.0029
     27 C         139.2580  140.1986  167.8191 C.ar    1  UNL1        0.0347
     28 C         139.4855  140.6938  169.2166 C.ar    1  UNL1        0.0029
     29 C         138.6347  140.1824  170.3412 C.ar    1  UNL1        0.0016
     30 C         135.6389  136.1272  173.9295 C.3     1  UNL1        0.0515
     31 C         135.8244  137.2633  172.9678 C.ar    1  UNL1        0.0535
     32 C         136.8978  137.3698  171.9254 C.ar    1  UNL1        0.0349
     33 C         136.7058  138.6647  171.1930 C.ar    1  UNL1        0.1018
     34 N         135.5137  139.3584  171.7826 N.ar    1  UNL1       -0.1730
     35 N         134.9690  138.4923  172.8795 N.ar    1  UNL1       -0.2798
     36 H         134.1873  138.6950  173.4426 H       1  UNL1        0.1886
@<TRIPOS>BOND
     1    30    31    1
     2    31    32   ar
     3    32    33   ar
     4    33    24    1
     5    24    25   ar
     6    25    26   ar
     7    26    27   ar
     8    27    22    1
     9    22    23    2
    10     1    22    1
    11     1     2    1
    12     2     3    1
    13     3     4    1
    14     4     5    1
    15     5     6    1
    16     6     7    1
    17     7     8    2
    18     7     9   am
    19     9    11    1
    20    11    12   ar
    21    12    13   ar
    22    13    14    1
    23    13    15   ar
    24    15    16   ar
    25    16    17    1
    26    17    18   am
    27    17    19    2
    28    27    28   ar
    29    28    29   ar
    30    33    34   ar
    31    34    35   ar
    32    35    31   ar
    33    29    24   ar
    34     6     1    1
    35    16    11   ar
    36     9    10    1
    37    18    20    1
    38    18    21    1
    39    35    36    1
@<TRIPOS>MOLECULE
*****
 36 39 0 0 0
SMALL
GASTEIGER

@<TRIPOS>ATOM
      1 C         138.9357  143.3584  162.2720 C.3     1  UNL1        0.0705
      2 C         138.6227  144.7371  162.7734 C.3     1  UNL1        0.0082
      3 C         139.2366  145.9339  162.1093 C.3     1  UNL1        0.0005
      4 C         140.1633  145.7521  160.9440 C.3     1  UNL1        0.0005
      5 C         140.4763  144.3734  160.4427 C.3     1  UNL1        0.0095
      6 C         139.8626  143.1766  161.1066 C.3     1  UNL1        0.0840
      7 C         140.1755  141.7979  160.6053 C.2     1  UNL1        0.2261
      8 O         139.1727  141.0577  159.7707 O.2     1  UNL1       -0.2748
      9 N         141.4913  141.1595  160.9385 N.am    1  UNL1       -0.2814
     10 H         142.1495  141.6453  161.4862 H       1  UNL1        0.1549
     11 C         141.8043  139.7808  160.4372 C.ar    1  UNL1        0.0934
     12 C         142.1319  139.4109  159.0209 C.ar    1  UNL1        0.1115
     13 N         142.3747  137.9315  158.9725 N.ar    1  UNL1       -0.2459
     14 C         142.7323  137.1362  157.7520 C.3     1  UNL1        0.1538
     15 N         142.1972  137.3870  160.3589 N.ar    1  UNL1       -0.1632
     16 C         141.8446  138.5300  161.2641 C.ar    1  UNL1        0.1686
     17 C         141.5791  138.4382  162.7375 C.2     1  UNL1        0.2635
     18 N         141.3184  137.1038  163.3709 N.am    1  UNL1       -0.3240
     19 O         141.5742  139.6809  163.5776 O.2     1  UNL1       -0.2686
     20 H         141.3216  136.2881  162.8196 H       1  UNL1        0.1453
     21 H         141.1441  137.0436  164.3380 H       1  UNL1        0.1453
     22 C         138.3219  142.1616  162.9360 C.2     1  UNL1        0.1731
     23 O         137.1861  141.4379  162.2757 O.2     1  UNL1       -0.2913
     24 C         139.8881  140.7423  166.9087 C.ar    1  UNL1        0.0194
     25 C         138.8366  139.9496  166.1905 C.ar    1  UNL1        0.0016
     26 C         138.3145  140.4227  164.8663 C.ar    1  UNL1        0.0029
     27 C         138.8440  141.6885  164.2603 C.ar    1  UNL1        0.0347
     28 C         139.8956  142.4812  164.9784 C.ar    1  UNL1        0.0029
     29 C         140.4176  142.0081  166.3026 C.ar    1  UNL1        0.0016
     30 C         143.1651  139.3931  170.8231 C.3     1  UNL1        0.0515
     31 C         141.9165  139.6490  170.0322 C.ar    1  UNL1        0.0535
     32 C         141.8543  140.1656  168.6253 C.ar    1  UNL1        0.0349
     33 C         140.4102  140.2692  168.2330 C.ar    1  UNL1        0.1018
     34 N         139.5799  139.8167  169.3974 N.ar    1  UNL1       -0.1730
     35 N         140.5108  139.4334  170.5093 N.ar    1  UNL1       -0.2798
     36 H         140.2458  139.0990  171.3966 H       1  UNL1        0.1886
@<TRIPOS>BOND
     1    30    31    1
     2    31    32   ar
     3    32    33   ar
     4    33    24    1
     5    24    25   ar
     6    25    26   ar
     7    26    27   ar
     8    27    22    1
     9    22    23    2
    10     1    22    1
    11     1     2    1
    12     2     3    1
    13     3     4    1
    14     4     5    1
    15     5     6    1
    16     6     7    1
    17     7     8    2
    18     7     9   am
    19     9    11    1
    20    11    12   ar
    21    12    13   ar
    22    13    14    1
    23    13    15   ar
    24    15    16   ar
    25    16    17    1
    26    17    18   am
    27    17    19    2
    28    27    28   ar
    29    28    29   ar
    30    33    34   ar
    31    34    35   ar
    32    35    31   ar
    33    29    24   ar
    34     6     1    1
    35    16    11   ar
    36     9    10    1
    37    18    20    1
    38    18    21    1
    39    35    36    1
@<TRIPOS>MOLECULE
*****
 36 39 0 0 0
SMALL
GASTEIGER

@<TRIPOS>ATOM
      1 C         143.6106  140.4363  164.1408 C.3     1  UNL1        0.0705
      2 C         143.9005  139.2992  165.0751 C.3     1  UNL1        0.0082
      3 C         143.1486  139.1801  166.3676 C.3     1  UNL1        0.0005
      4 C         142.1068  140.1982  166.7258 C.3     1  UNL1        0.0005
      5 C         141.8170  141.3353  165.7914 C.3     1  UNL1        0.0095
      6 C         142.5688  141.4544  164.4990 C.3     1  UNL1        0.0840
      7 C         142.2790  142.5915  163.5647 C.2     1  UNL1        0.2261
      8 O         142.9244  143.9274  163.7862 O.2     1  UNL1       -0.2748
      9 N         141.3437  142.3928  162.4089 N.am    1  UNL1       -0.2814
     10 H         140.9202  141.5161  162.2636 H       1  UNL1        0.1549
     11 C         141.0539  143.5300  161.4746 C.ar    1  UNL1        0.0934
     12 C         141.7062  143.7667  160.1448 C.ar    1  UNL1        0.1115
     13 N         141.1163  145.0130  159.5544 N.ar    1  UNL1       -0.2459
     14 C         141.4795  145.6193  158.2313 C.3     1  UNL1        0.1538
     15 N         140.0994  145.5467  160.5193 N.ar    1  UNL1       -0.1632
     16 C         140.0608  144.6301  161.7061 C.ar    1  UNL1        0.1686
     17 C         139.1832  144.7862  162.9125 C.2     1  UNL1        0.2635
     18 N         139.7891  145.1269  164.2417 N.am    1  UNL1       -0.3240
     19 O         137.6996  144.6016  162.7898 O.2     1  UNL1       -0.2686
     20 H         140.7628  145.2481  164.3223 H       1  UNL1        0.1453
     21 H         139.2130  145.2294  165.0335 H       1  UNL1        0.1453
     22 C         144.3625  140.5554  162.8483 C.2     1  UNL1        0.1731
     23 O         145.6024  141.3965  162.7767 O.2     1  UNL1       -0.2913
     24 C         142.8985  138.3893  159.1858 C.ar    1  UNL1        0.0194
     25 C         143.1560  139.8659  159.1309 C.ar    1  UNL1        0.0016
     26 C         143.6439  140.5880  160.3518 C.ar    1  UNL1        0.0029
     27 C         143.8745  139.8333  161.6275 C.ar    1  UNL1        0.0347
     28 C         143.6170  138.3566  161.6823 C.ar    1  UNL1        0.0029
     29 C         143.1290  137.6346  160.4614 C.ar    1  UNL1        0.0016
     30 C         139.8141  136.7045  155.2451 C.3     1  UNL1        0.0515
     31 C         140.9927  136.8928  156.1535 C.ar    1  UNL1        0.0535
     32 C         141.0448  137.7876  157.3563 C.ar    1  UNL1        0.0349
     33 C         142.4105  137.6672  157.9649 C.ar    1  UNL1        0.1018
     34 N         143.2025  136.6979  157.1383 N.ar    1  UNL1       -0.1730
     35 N         142.3263  136.2193  156.0188 N.ar    1  UNL1       -0.2798
     36 H         142.5816  135.5761  155.3186 H       1  UNL1        0.1886
@<TRIPOS>BOND
     1    30    31    1
     2    31    32   ar
     3    32    33   ar
     4    33    24    1
     5    24    25   ar
     6    25    26   ar
     7    26    27   ar
     8    27    22    1
     9    22    23    2
    10     1    22    1
    11     1     2    1
    12     2     3    1
    13     3     4    1
    14     4     5    1
    15     5     6    1
    16     6     7    1
    17     7     8    2
    18     7     9   am
    19     9    11    1
    20    11    12   ar
    21    12    13   ar
    22    13    14    1
    23    13    15   ar
    24    15    16   ar
    25    16    17    1
    26    17    18   am
    27    17    19    2
    28    27    28   ar
    29    28    29   ar
    30    33    34   ar
    31    34    35   ar
    32    35    31   ar
    33    29    24   ar
    34     6     1    1
    35    16    11   ar
    36     9    10    1
    37    18    20    1
    38    18    21    1
    39    35    36    1
