@<TRIPOS>MOLECULE
*****
 25 27 0 0 0
SMALL
GASTEIGER

@<TRIPOS>ATOM
      1 C         138.9670  144.4261  162.8011 C.ar    1  UNL1        0.1109
      2 C         138.5093  144.3295  164.2262 C.ar    1  UNL1        0.1468
      3 F         138.8369  145.4266  165.1952 F       1  UNL1       -0.2039
      4 C         137.7239  143.1357  164.6824 C.ar    1  UNL1        0.0331
      5 C         137.3963  142.0385  163.7134 C.ar    1  UNL1        0.0416
      6 C         137.8541  142.1352  162.2882 C.ar    1  UNL1        0.1667
      7 C         138.6394  143.3290  161.8321 C.ar    1  UNL1        0.1803
      8 F         139.0971  143.4256  160.4069 F       1  UNL1       -0.2007
      9 N         141.0925  145.9125  162.9517 N.am    1  UNL1       -0.3252
     10 C         139.7523  145.6199  162.3449 C.2     1  UNL1        0.2472
     11 O         139.1975  146.5211  161.2819 O.2     1  UNL1       -0.2702
     12 H         141.6080  146.6960  162.6523 H       1  UNL1        0.1453
     13 H         141.4567  145.3210  163.6494 H       1  UNL1        0.1453
     14 O         137.5264  141.0381  161.3192 O.3     1  UNL1       -0.4661
     15 C         138.0701  139.6573  161.5377 C.3     1  UNL1        0.2575
     16 C         139.3498  139.4666  162.2968 C.ar    1  UNL1        0.1338
     17 N         140.7075  139.9393  161.8690 N.ar    1  UNL1       -0.2202
     18 C         141.6932  139.5345  162.9247 C.ar    1  UNL1        0.1687
     19 N         143.1757  139.7307  163.0419 N.ar    1  UNL1       -0.2237
     20 C         143.9096  139.2041  164.2394 C.ar    1  UNL1        0.1119
     21 C         143.1610  138.4812  165.3197 C.ar    1  UNL1        0.0774
     22 CL        143.8949  137.9545  166.5172 Cl      1  UNL1       -0.0806
     23 C         141.6785  138.2849  165.2025 C.ar    1  UNL1        0.0226
     24 C         140.9447  138.8116  164.0050 C.ar    1  UNL1        0.0673
     25 S         139.4963  138.7696  163.6169 S.2     1  UNL1       -0.0655
@<TRIPOS>BOND
     1     9    10   am
     2    10    11    2
     3    10     1    1
     4     1     2   ar
     5     2     3    1
     6     2     4   ar
     7     4     5   ar
     8     5     6   ar
     9     6    14    1
    10    14    15    1
    11    15    16    1
    12    16    17   ar
    13    17    18   ar
    14    18    19   ar
    15    19    20   ar
    16    20    21   ar
    17    21    22    1
    18    21    23   ar
    19    23    24   ar
    20    24    25   ar
    21     6     7   ar
    22     7     8    1
    23     7     1   ar
    24    25    16   ar
    25    24    18   ar
    26     9    12    1
    27     9    13    1
@<TRIPOS>MOLECULE
*****
 25 27 0 0 0
SMALL
GASTEIGER

@<TRIPOS>ATOM
      1 C         141.1728  140.8869  169.6154 C.ar    1  UNL1        0.1109
      2 C         140.9831  142.0982  168.7512 C.ar    1  UNL1        0.1468
      3 F         140.1474  143.2442  169.2392 F       1  UNL1       -0.2039
      4 C         141.6291  142.1634  167.3990 C.ar    1  UNL1        0.0331
      5 C         142.4648  141.0173  166.9110 C.ar    1  UNL1        0.0416
      6 C         142.6545  139.8060  167.7753 C.ar    1  UNL1        0.1667
      7 C         142.0086  139.7409  169.1275 C.ar    1  UNL1        0.1803
      8 F         142.1983  138.5297  169.9917 F       1  UNL1       -0.2007
      9 N         139.7216  139.6176  171.3569 N.am    1  UNL1       -0.3252
     10 C         140.5268  140.8218  170.9676 C.2     1  UNL1        0.2472
     11 O         140.6860  141.9609  171.9306 O.2     1  UNL1       -0.2702
     12 H         139.2976  139.5749  172.2444 H       1  UNL1        0.1453
     13 H         139.6172  138.8700  170.7249 H       1  UNL1        0.1453
     14 O         143.4903  138.6600  167.2874 O.3     1  UNL1       -0.4661
     15 C         143.8032  138.5286  165.8263 C.3     1  UNL1        0.2575
     16 C         142.6904  138.4949  164.8210 C.ar    1  UNL1        0.1338
     17 N         141.3600  137.8256  165.0005 N.ar    1  UNL1       -0.2202
     18 C         140.5600  138.0416  163.7502 C.ar    1  UNL1        0.1687
     19 N         139.1784  137.6110  163.3558 N.ar    1  UNL1       -0.2237
     20 C         138.6326  137.9832  162.0091 C.ar    1  UNL1        0.1119
     21 C         139.4685  138.7860  161.0568 C.ar    1  UNL1        0.0774
     22 CL        138.9227  139.1582  159.7101 Cl      1  UNL1       -0.0806
     23 C         140.8502  139.2166  161.4513 C.ar    1  UNL1        0.0226
     24 C         141.3959  138.8444  162.7979 C.ar    1  UNL1        0.0673
     25 S         142.7125  139.1245  163.4598 S.2     1  UNL1       -0.0655
@<TRIPOS>BOND
     1     9    10   am
     2    10    11    2
     3    10     1    1
     4     1     2   ar
     5     2     3    1
     6     2     4   ar
     7     4     5   ar
     8     5     6   ar
     9     6    14    1
    10    14    15    1
    11    15    16    1
    12    16    17   ar
    13    17    18   ar
    14    18    19   ar
    15    19    20   ar
    16    20    21   ar
    17    21    22    1
    18    21    23   ar
    19    23    24   ar
    20    24    25   ar
    21     6     7   ar
    22     7     8    1
    23     7     1   ar
    24    25    16   ar
    25    24    18   ar
    26     9    12    1
    27     9    13    1
@<TRIPOS>MOLECULE
*****
 25 27 0 0 0
SMALL
GASTEIGER

@<TRIPOS>ATOM
      1 C         143.1337  138.5630  164.8343 C.ar    1  UNL1        0.1109
      2 C         144.1920  139.1292  163.9346 C.ar    1  UNL1        0.1468
      3 F         145.4402  139.7175  164.5227 F       1  UNL1       -0.2039
      4 C         144.0020  139.1071  162.4468 C.ar    1  UNL1        0.0331
      5 C         142.7538  138.5187  161.8587 C.ar    1  UNL1        0.0416
      6 C         141.6955  137.9525  162.7585 C.ar    1  UNL1        0.1667
      7 C         141.8855  137.9747  164.2462 C.ar    1  UNL1        0.1803
      8 F         140.8272  137.4085  165.1459 F       1  UNL1       -0.2007
      9 N         142.5441  139.5518  167.1634 N.am    1  UNL1       -0.3252
     10 C         143.3237  138.5851  166.3220 C.2     1  UNL1        0.2472
     11 O         144.2933  137.6406  166.9685 O.2     1  UNL1       -0.2702
     12 H         142.6688  139.5663  168.1398 H       1  UNL1        0.1453
     13 H         141.9077  140.1717  166.7391 H       1  UNL1        0.1453
     14 O         140.4473  137.3642  162.1705 O.3     1  UNL1       -0.4661
     15 C         139.2775  138.2486  161.8555 C.3     1  UNL1        0.2575
     16 C         139.2518  139.6636  162.3526 C.ar    1  UNL1        0.1338
     17 N         139.7989  140.8609  161.6335 N.ar    1  UNL1       -0.2202
     18 C         139.5597  142.0670  162.4926 C.ar    1  UNL1        0.1687
     19 N         139.8849  143.5183  162.2981 N.ar    1  UNL1       -0.2237
     20 C         139.5151  144.5178  163.3537 C.ar    1  UNL1        0.1119
     21 C         138.8202  144.0659  164.6038 C.ar    1  UNL1        0.0774
     22 CL        138.4504  145.0654  165.6595 Cl      1  UNL1       -0.0806
     23 C         138.4950  142.6146  164.7984 C.ar    1  UNL1        0.0226
     24 C         138.8647  141.6152  163.7427 C.ar    1  UNL1        0.0673
     25 S         138.6745  140.1298  163.6562 S.2     1  UNL1       -0.0655
@<TRIPOS>BOND
     1     9    10   am
     2    10    11    2
     3    10     1    1
     4     1     2   ar
     5     2     3    1
     6     2     4   ar
     7     4     5   ar
     8     5     6   ar
     9     6    14    1
    10    14    15    1
    11    15    16    1
    12    16    17   ar
    13    17    18   ar
    14    18    19   ar
    15    19    20   ar
    16    20    21   ar
    17    21    22    1
    18    21    23   ar
    19    23    24   ar
    20    24    25   ar
    21     6     7   ar
    22     7     8    1
    23     7     1   ar
    24    25    16   ar
    25    24    18   ar
    26     9    12    1
    27     9    13    1
@<TRIPOS>MOLECULE
*****
 25 27 0 0 0
SMALL
GASTEIGER

@<TRIPOS>ATOM
      1 C         141.3766  137.9996  162.1460 C.ar    1  UNL1        0.1109
      2 C         140.4543  138.2574  160.9915 C.ar    1  UNL1        0.1468
      3 F         141.0150  138.4701  159.6166 F       1  UNL1       -0.2039
      4 C         138.9712  138.3026  161.2119 C.ar    1  UNL1        0.0331
      5 C         138.4105  138.0899  162.5869 C.ar    1  UNL1        0.0416
      6 C         139.3329  137.8321  163.7413 C.ar    1  UNL1        0.1667
      7 C         140.8159  137.7870  163.5209 C.ar    1  UNL1        0.1803
      8 F         141.7382  137.5292  164.6753 F       1  UNL1       -0.2007
      9 N         143.4350  137.0471  160.8788 N.am    1  UNL1       -0.3252
     10 C         142.8596  137.9545  161.9255 C.2     1  UNL1        0.2472
     11 O         143.7673  138.8168  162.7517 O.2     1  UNL1       -0.2702
     12 H         144.4083  137.0174  160.7341 H       1  UNL1        0.1453
     13 H         142.8392  136.4811  160.3365 H       1  UNL1        0.1453
     14 O         138.7723  137.6195  165.1163 O.3     1  UNL1       -0.4661
     15 C         138.3144  138.7938  165.9294 C.3     1  UNL1        0.2575
     16 C         139.2492  139.4370  166.9104 C.ar    1  UNL1        0.1338
     17 N         139.0248  139.5656  168.3880 N.ar    1  UNL1       -0.2202
     18 C         140.2094  140.2726  168.9769 C.ar    1  UNL1        0.1687
     19 N         140.5407  140.6755  170.3833 N.ar    1  UNL1       -0.2237
     20 C         141.8285  141.3867  170.6761 C.ar    1  UNL1        0.1119
     21 C         142.7850  141.6950  169.5625 C.ar    1  UNL1        0.0774
     22 CL        144.0729  142.4062  169.8554 Cl      1  UNL1       -0.0806
     23 C         142.4537  141.2922  168.1561 C.ar    1  UNL1        0.0226
     24 C         141.1659  140.5810  167.8634 C.ar    1  UNL1        0.0673
     25 S         140.5724  140.0645  166.5862 S.2     1  UNL1       -0.0655
@<TRIPOS>BOND
     1     9    10   am
     2    10    11    2
     3    10     1    1
     4     1     2   ar
     5     2     3    1
     6     2     4   ar
     7     4     5   ar
     8     5     6   ar
     9     6    14    1
    10    14    15    1
    11    15    16    1
    12    16    17   ar
    13    17    18   ar
    14    18    19   ar
    15    19    20   ar
    16    20    21   ar
    17    21    22    1
    18    21    23   ar
    19    23    24   ar
    20    24    25   ar
    21     6     7   ar
    22     7     8    1
    23     7     1   ar
    24    25    16   ar
    25    24    18   ar
    26     9    12    1
    27     9    13    1
@<TRIPOS>MOLECULE
*****
 25 27 0 0 0
SMALL
GASTEIGER

@<TRIPOS>ATOM
      1 C         140.9916  140.8306  169.6511 C.ar    1  UNL1        0.1109
      2 C         139.6405  140.2858  169.2939 C.ar    1  UNL1        0.1468
      3 F         138.6092  140.0773  170.3630 F       1  UNL1       -0.2039
      4 C         139.3206  139.9495  167.8674 C.ar    1  UNL1        0.0331
      5 C         140.3519  140.1580  166.7983 C.ar    1  UNL1        0.0416
      6 C         141.7031  140.7028  167.1557 C.ar    1  UNL1        0.1667
      7 C         142.0229  141.0391  168.5820 C.ar    1  UNL1        0.1803
      8 F         143.3740  141.5839  168.9393 F       1  UNL1       -0.2007
      9 N         142.4886  140.5282  171.7529 N.am    1  UNL1       -0.3252
     10 C         141.3114  141.1670  171.0775 C.2     1  UNL1        0.2472
     11 O         140.4540  142.1421  171.8285 O.2     1  UNL1       -0.2702
     12 H         142.6985  140.7489  172.6891 H       1  UNL1        0.1453
     13 H         143.0513  139.8881  171.2600 H       1  UNL1        0.1453
     14 O         142.7344  140.9113  166.0866 O.3     1  UNL1       -0.4661
     15 C         143.1844  142.2993  165.7390 C.3     1  UNL1        0.2575
     16 C         142.5336  143.0373  164.6069 C.ar    1  UNL1        0.1338
     17 N         141.3465  143.9479  164.7146 N.ar    1  UNL1       -0.2202
     18 C         141.0349  144.4677  163.3425 C.ar    1  UNL1        0.1687
     19 N         139.9740  145.4015  162.8399 N.ar    1  UNL1       -0.2237
     20 C         139.9078  145.7460  161.3816 C.ar    1  UNL1        0.1119
     21 C         140.9024  145.1567  160.4258 C.ar    1  UNL1        0.0774
     22 CL        140.8361  145.5013  158.9673 Cl      1  UNL1       -0.0806
     23 C         141.9632  144.2229  160.9283 C.ar    1  UNL1        0.0226
     24 C         142.0295  143.8784  162.3867 C.ar    1  UNL1        0.0673
     25 S         142.9557  142.9944  163.1681 S.2     1  UNL1       -0.0655
@<TRIPOS>BOND
     1     9    10   am
     2    10    11    2
     3    10     1    1
     4     1     2   ar
     5     2     3    1
     6     2     4   ar
     7     4     5   ar
     8     5     6   ar
     9     6    14    1
    10    14    15    1
    11    15    16    1
    12    16    17   ar
    13    17    18   ar
    14    18    19   ar
    15    19    20   ar
    16    20    21   ar
    17    21    22    1
    18    21    23   ar
    19    23    24   ar
    20    24    25   ar
    21     6     7   ar
    22     7     8    1
    23     7     1   ar
    24    25    16   ar
    25    24    18   ar
    26     9    12    1
    27     9    13    1
@<TRIPOS>MOLECULE
*****
 25 27 0 0 0
SMALL
GASTEIGER

@<TRIPOS>ATOM
      1 C         142.3474  138.6701  162.5712 C.ar    1  UNL1        0.1109
      2 C         142.1656  138.1325  163.9596 C.ar    1  UNL1        0.1468
      3 F         143.2963  138.1974  164.9431 F       1  UNL1       -0.2039
      4 C         140.8530  137.5298  164.3647 C.ar    1  UNL1        0.0331
      5 C         139.7223  137.4648  163.3812 C.ar    1  UNL1        0.0416
      6 C         139.9041  138.0025  161.9927 C.ar    1  UNL1        0.1667
      7 C         141.2167  138.6051  161.5877 C.ar    1  UNL1        0.1803
      8 F         141.3984  139.1428  160.1993 F       1  UNL1       -0.2007
      9 N         144.5663  138.5342  161.2266 N.am    1  UNL1       -0.3252
     10 C         143.6599  139.2728  162.1662 C.2     1  UNL1        0.2472
     11 O         144.0661  140.6142  162.7009 O.2     1  UNL1       -0.2702
     12 H         145.4277  138.9297  160.9608 H       1  UNL1        0.1453
     13 H         144.2997  137.6538  160.8756 H       1  UNL1        0.1453
     14 O         138.7734  137.9375  161.0092 O.3     1  UNL1       -0.4661
     15 C         137.6423  138.9183  161.1010 C.3     1  UNL1        0.2575
     16 C         137.8591  140.2551  161.7460 C.ar    1  UNL1        0.1338
     17 N         138.2608  141.5182  161.0437 N.ar    1  UNL1       -0.2202
     18 C         138.3623  142.6072  162.0703 C.ar    1  UNL1        0.1687
     19 N         138.7195  144.0598  161.9605 N.ar    1  UNL1       -0.2237
     20 C         138.7379  144.9224  163.1875 C.ar    1  UNL1        0.1119
     21 C         138.3990  144.3323  164.5243 C.ar    1  UNL1        0.0774
     22 CL        138.4173  145.1950  165.7513 Cl      1  UNL1       -0.0806
     23 C         138.0417  142.8797  164.6340 C.ar    1  UNL1        0.0226
     24 C         138.0234  142.0171  163.4070 C.ar    1  UNL1        0.0673
     25 S         137.7124  140.5634  163.2066 S.2     1  UNL1       -0.0655
@<TRIPOS>BOND
     1     9    10   am
     2    10    11    2
     3    10     1    1
     4     1     2   ar
     5     2     3    1
     6     2     4   ar
     7     4     5   ar
     8     5     6   ar
     9     6    14    1
    10    14    15    1
    11    15    16    1
    12    16    17   ar
    13    17    18   ar
    14    18    19   ar
    15    19    20   ar
    16    20    21   ar
    17    21    22    1
    18    21    23   ar
    19    23    24   ar
    20    24    25   ar
    21     6     7   ar
    22     7     8    1
    23     7     1   ar
    24    25    16   ar
    25    24    18   ar
    26     9    12    1
    27     9    13    1
@<TRIPOS>MOLECULE
*****
 25 27 0 0 0
SMALL
GASTEIGER

@<TRIPOS>ATOM
      1 C         143.0407  143.6141  162.9332 C.ar    1  UNL1        0.1109
      2 C         143.9253  144.1108  164.0381 C.ar    1  UNL1        0.1468
      3 F         143.8422  145.5420  164.4794 F       1  UNL1       -0.2039
      4 C         144.8929  143.1762  164.7017 C.ar    1  UNL1        0.0331
      5 C         144.9759  141.7450  164.2603 C.ar    1  UNL1        0.0416
      6 C         144.0913  141.2484  163.1554 C.ar    1  UNL1        0.1667
      7 C         143.1237  142.1829  162.4918 C.ar    1  UNL1        0.1803
      8 F         142.2391  141.6863  161.3870 F       1  UNL1       -0.2007
      9 N         142.2081  144.8540  160.8073 N.am    1  UNL1       -0.3252
     10 C         142.0731  144.5487  162.2697 C.2     1  UNL1        0.2472
     11 O         140.9704  145.1780  163.0685 O.2     1  UNL1       -0.2702
     12 H         141.5731  145.4674  160.3718 H       1  UNL1        0.1453
     13 H         142.9319  144.4410  160.2830 H       1  UNL1        0.1453
     14 O         144.1743  139.8172  162.7140 O.3     1  UNL1       -0.4661
     15 C         143.3422  138.7724  163.3966 C.3     1  UNL1        0.2575
     16 C         142.8021  139.0249  164.7730 C.ar    1  UNL1        0.1338
     17 N         143.5517  138.8489  166.0603 N.ar    1  UNL1       -0.2202
     18 C         142.6305  139.2130  167.1867 C.ar    1  UNL1        0.1687
     19 N         142.8223  139.2311  168.6742 N.ar    1  UNL1       -0.2237
     20 C         141.6952  139.6504  169.5707 C.ar    1  UNL1        0.1119
     21 C         140.3762  140.0515  168.9796 C.ar    1  UNL1        0.0774
     22 CL        139.2490  140.4708  169.8761 Cl      1  UNL1       -0.0806
     23 C         140.1844  140.0334  167.4920 C.ar    1  UNL1        0.0226
     24 C         141.3116  139.6141  166.5956 C.ar    1  UNL1        0.0673
     25 S         141.4176  139.4979  165.1038 S.2     1  UNL1       -0.0655
@<TRIPOS>BOND
     1     9    10   am
     2    10    11    2
     3    10     1    1
     4     1     2   ar
     5     2     3    1
     6     2     4   ar
     7     4     5   ar
     8     5     6   ar
     9     6    14    1
    10    14    15    1
    11    15    16    1
    12    16    17   ar
    13    17    18   ar
    14    18    19   ar
    15    19    20   ar
    16    20    21   ar
    17    21    22    1
    18    21    23   ar
    19    23    24   ar
    20    24    25   ar
    21     6     7   ar
    22     7     8    1
    23     7     1   ar
    24    25    16   ar
    25    24    18   ar
    26     9    12    1
    27     9    13    1
@<TRIPOS>MOLECULE
*****
 25 27 0 0 0
SMALL
GASTEIGER

@<TRIPOS>ATOM
      1 C         140.8291  140.2573  169.3432 C.ar    1  UNL1        0.1109
      2 C         142.2661  140.4960  168.9852 C.ar    1  UNL1        0.1468
      3 F         143.2596  140.8350  170.0566 F       1  UNL1       -0.2039
      4 C         142.7095  140.3957  167.5557 C.ar    1  UNL1        0.0331
      5 C         141.7159  140.0567  166.4843 C.ar    1  UNL1        0.0416
      6 C         140.2789  139.8180  166.8424 C.ar    1  UNL1        0.1667
      7 C         139.8356  139.9183  168.2718 C.ar    1  UNL1        0.1803
      8 F         138.3986  139.6796  168.6299 F       1  UNL1       -0.2007
      9 N         139.7058  139.1936  171.4304 N.am    1  UNL1       -0.3252
     10 C         140.3858  140.3576  170.7726 C.2     1  UNL1        0.2472
     11 O         140.6225  141.6219  171.5444 O.2     1  UNL1       -0.2702
     12 H         139.4148  139.2595  172.3686 H       1  UNL1        0.1453
     13 H         139.5504  138.3638  170.9239 H       1  UNL1        0.1453
     14 O         139.2853  139.4790  165.7710 O.3     1  UNL1       -0.4661
     15 C         138.3084  140.5149  165.2991 C.3     1  UNL1        0.2575
     16 C         138.7675  141.6243  164.4000 C.ar    1  UNL1        0.1338
     17 N         138.5190  143.0887  164.6091 N.ar    1  UNL1       -0.2202
     18 C         139.1536  143.8336  163.4722 C.ar    1  UNL1        0.1687
     19 N         139.2308  145.2964  163.1494 N.ar    1  UNL1       -0.2237
     20 C         139.9486  145.7551  161.9149 C.ar    1  UNL1        0.1119
     21 C         140.5893  144.7510  161.0031 C.ar    1  UNL1        0.0774
     22 CL        141.3071  145.2097  159.7684 Cl      1  UNL1       -0.0806
     23 C         140.5120  143.2882  161.3258 C.ar    1  UNL1        0.0226
     24 C         139.7942  142.8295  162.5604 C.ar    1  UNL1        0.0673
     25 S         139.5556  141.4641  163.1338 S.2     1  UNL1       -0.0655
@<TRIPOS>BOND
     1     9    10   am
     2    10    11    2
     3    10     1    1
     4     1     2   ar
     5     2     3    1
     6     2     4   ar
     7     4     5   ar
     8     5     6   ar
     9     6    14    1
    10    14    15    1
    11    15    16    1
    12    16    17   ar
    13    17    18   ar
    14    18    19   ar
    15    19    20   ar
    16    20    21   ar
    17    21    22    1
    18    21    23   ar
    19    23    24   ar
    20    24    25   ar
    21     6     7   ar
    22     7     8    1
    23     7     1   ar
    24    25    16   ar
    25    24    18   ar
    26     9    12    1
    27     9    13    1
@<TRIPOS>MOLECULE
*****
 25 27 0 0 0
SMALL
GASTEIGER

@<TRIPOS>ATOM
      1 C         141.1413  141.7293  169.2369 C.ar    1  UNL1        0.1109
      2 C         142.4469  141.7722  168.4996 C.ar    1  UNL1        0.1468
      3 F         143.5428  142.6833  168.9674 F       1  UNL1       -0.2039
      4 C         142.6566  140.9038  167.2946 C.ar    1  UNL1        0.0331
      5 C         141.5607  139.9927  166.8268 C.ar    1  UNL1        0.0416
      6 C         140.2551  139.9498  167.5642 C.ar    1  UNL1        0.1667
      7 C         140.0454  140.8181  168.7692 C.ar    1  UNL1        0.1803
      8 F         138.7398  140.7753  169.5065 F       1  UNL1       -0.2007
      9 N         140.9296  144.0908  170.2992 N.am    1  UNL1       -0.3252
     10 C         140.9317  142.5976  170.4419 C.2     1  UNL1        0.2472
     11 O         140.7241  141.9727  171.7897 O.2     1  UNL1       -0.2702
     12 H         140.7920  144.6607  171.0901 H       1  UNL1        0.1453
     13 H         141.0659  144.5009  169.4147 H       1  UNL1        0.1453
     14 O         139.1591  139.0387  167.0965 O.3     1  UNL1       -0.4661
     15 C         138.0753  139.5659  166.2036 C.3     1  UNL1        0.2575
     16 C         138.2599  139.5584  164.7150 C.ar    1  UNL1        0.1338
     17 N         137.7446  140.5915  163.7574 N.ar    1  UNL1       -0.2202
     18 C         138.1585  140.1881  162.3732 C.ar    1  UNL1        0.1687
     19 N         137.9328  140.8228  161.0331 N.ar    1  UNL1       -0.2237
     20 C         138.4783  140.1750  159.7950 C.ar    1  UNL1        0.1119
     21 C         139.2494  138.8924  159.8972 C.ar    1  UNL1        0.0774
     22 CL        139.7949  138.2446  158.6591 Cl      1  UNL1       -0.0806
     23 C         139.4751  138.2577  161.2374 C.ar    1  UNL1        0.0226
     24 C         138.9296  138.9055  162.4754 C.ar    1  UNL1        0.0673
     25 S         138.9923  138.5164  163.9227 S.2     1  UNL1       -0.0655
@<TRIPOS>BOND
     1     9    10   am
     2    10    11    2
     3    10     1    1
     4     1     2   ar
     5     2     3    1
     6     2     4   ar
     7     4     5   ar
     8     5     6   ar
     9     6    14    1
    10    14    15    1
    11    15    16    1
    12    16    17   ar
    13    17    18   ar
    14    18    19   ar
    15    19    20   ar
    16    20    21   ar
    17    21    22    1
    18    21    23   ar
    19    23    24   ar
    20    24    25   ar
    21     6     7   ar
    22     7     8    1
    23     7     1   ar
    24    25    16   ar
    25    24    18   ar
    26     9    12    1
    27     9    13    1
