@<TRIPOS>MOLECULE
*****
 39 44 0 0 0
SMALL
GASTEIGER

@<TRIPOS>ATOM
      1 O         144.1021  139.5002  157.3774 O.2     1  UNL1       -0.2706
      2 C         143.4923  138.2672  156.7793 C.2     1  UNL1        0.2701
      3 N         142.5979  137.3945  157.6090 N.am    1  UNL1       -0.2999
      4 H         142.1977  136.5853  157.2164 H       1  UNL1        0.1496
      5 C         142.3133  137.7550  159.0370 C.3     1  UNL1        0.1035
      6 C         141.1739  138.4118  159.7583 C.3     1  UNL1        0.0933
      7 N         141.9108  138.2647  161.0565 N.3     1  UNL1       -0.2711
      8 C         143.0503  137.6078  160.3352 C.3     1  UNL1        0.0933
      9 C         141.6262  138.6251  162.4844 C.3     1  UNL1        0.0576
     10 C         141.1659  137.5705  163.4467 C.3     1  UNL1        0.0163
     11 C         140.8813  137.9310  164.8747 C.3     1  UNL1        0.0057
     12 C         141.0570  139.3460  165.3404 C.3     1  UNL1        0.0225
     13 C         141.5173  140.4005  164.3780 C.3     1  UNL1        0.0057
     14 C         141.8019  140.0401  162.9501 C.3     1  UNL1        0.0163
     15 C         140.7724  139.7065  166.7682 C.ar    1  UNL1       -0.0193
     16 C         139.3667  139.6536  167.2893 C.ar    1  UNL1       -0.0010
     17 C         139.0820  140.0141  168.7172 C.ar    1  UNL1        0.0399
     18 C         140.2030  140.4276  169.6241 C.ar    1  UNL1        0.1764
     19 C         141.6086  140.4805  169.1031 C.ar    1  UNL1        0.1761
     20 C         141.8933  140.1200  167.6752 C.ar    1  UNL1        0.0359
     21 O         142.5021  140.9219  170.2242 O.3     1  UNL1       -0.4346
     22 C         141.6487  141.1417  171.4380 C.3     1  UNL1        0.4294
     23 O         140.2278  140.8362  171.0672 O.3     1  UNL1       -0.4346
     24 C         143.7769  137.9067  155.3513 C.3     1  UNL1        0.2850
     25 N         144.1652  136.5022  154.9953 N.pl3   1  UNL1       -0.2091
     26 H         145.1157  136.2482  154.9599 H       1  UNL1        0.2928
     27 C         143.1052  135.4847  154.6934 C.2     1  UNL1        0.3493
     28 N         141.9334  135.6776  153.7770 N.2     1  UNL1        0.0798
     29 N         141.1350  134.4078  153.7721 N.2     1  UNL1       -0.0381
     30 C         141.8133  133.4301  154.6853 C.2     1  UNL1        0.1169
     31 C         141.4795  132.0198  155.0720 C.3     1  UNL1        0.0759
     32 C         142.3634  131.2751  156.0280 C.2     1  UNL1       -0.0158
     33 C         143.5811  131.9406  156.5974 C.2     1  UNL1        0.0678
     34 C         143.9149  133.3510  156.2108 C.2     1  UNL1        0.0123
     35 C         143.0310  134.0957  155.2547 C.2     1  UNL1        0.1019
     36 C         144.4650  131.1958  157.5535 C.3     1  UNL1        0.4183
     37 F         145.3488  130.4511  158.5096 F       1  UNL1       -0.1659
     38 F         145.6062  132.1055  157.2072 F       1  UNL1       -0.1659
     39 F         143.3237  130.2862  157.8999 F       1  UNL1       -0.1659
@<TRIPOS>BOND
     1     1     2    2
     2     2    24    1
     3    24    25    1
     4    25    27    1
     5    27    28    2
     6    28    29    1
     7    29    30    2
     8    30    31    1
     9    31    32    1
    10    32    33    2
    11    33    36    1
    12    36    37    1
    13    36    38    1
    14    36    39    1
    15    33    34    1
    16    34    35    2
    17     2     3   am
    18     3     5    1
    19     5     6    1
    20     6     7    1
    21     9     7    1
    22     9    10    1
    23    10    11    1
    24    11    12    1
    25    12    15    1
    26    15    16   ar
    27    16    17   ar
    28    17    18   ar
    29    18    19   ar
    30    19    20   ar
    31    19    21    1
    32    21    22    1
    33    22    23    1
    34    12    13    1
    35    13    14    1
    36     7     8    1
    37    35    27    1
    38     8     5    1
    39    35    30    1
    40    14     9    1
    41    20    15   ar
    42    23    18    1
    43    25    26    1
    44     3     4    1
@<TRIPOS>MOLECULE
*****
 39 44 0 0 0
SMALL
GASTEIGER

@<TRIPOS>ATOM
      1 O         143.5341  139.8096  157.1739 O.2     1  UNL1       -0.2706
      2 C         143.3634  138.3928  156.7118 C.2     1  UNL1        0.2701
      3 N         142.8809  137.3444  157.6699 N.am    1  UNL1       -0.2999
      4 H         142.7688  136.4145  157.3666 H       1  UNL1        0.1496
      5 C         142.5691  137.7128  159.0901 C.3     1  UNL1        0.1035
      6 C         143.2908  137.5937  160.3997 C.3     1  UNL1        0.0933
      7 N         142.1282  138.2339  161.0987 N.3     1  UNL1       -0.2711
      8 C         141.4065  138.3530  159.7891 C.3     1  UNL1        0.0933
      9 C         141.8164  138.6023  162.5189 C.3     1  UNL1        0.0576
     10 C         141.9506  140.0262  162.9711 C.3     1  UNL1        0.0163
     11 C         141.6388  140.3946  164.3914 C.3     1  UNL1        0.0057
     12 C         141.1929  139.3391  165.3594 C.3     1  UNL1        0.0225
     13 C         141.0588  137.9152  164.9071 C.3     1  UNL1        0.0057
     14 C         141.3705  137.5468  163.4870 C.3     1  UNL1        0.0163
     15 C         140.8811  139.7074  166.7796 C.ar    1  UNL1       -0.0193
     16 C         139.4578  139.7334  167.2525 C.ar    1  UNL1       -0.0010
     17 C         139.1459  140.1016  168.6728 C.ar    1  UNL1        0.0399
     18 C         140.2573  140.4440  169.6201 C.ar    1  UNL1        0.1764
     19 C         141.6806  140.4181  169.1473 C.ar    1  UNL1        0.1761
     20 C         141.9925  140.0498  167.7270 C.ar    1  UNL1        0.0359
     21 O         142.5594  140.8003  170.3012 O.3     1  UNL1       -0.4346
     22 C         141.6793  141.0624  171.4872 C.3     1  UNL1        0.4294
     23 O         140.2565  140.8422  171.0663 O.3     1  UNL1       -0.4346
     24 C         143.6751  138.0244  155.2916 C.3     1  UNL1        0.2850
     25 N         144.1123  136.6289  154.9574 N.pl3   1  UNL1       -0.2091
     26 H         145.0711  136.4068  154.9295 H       1  UNL1        0.2928
     27 C         143.0888  135.5718  154.6657 C.2     1  UNL1        0.3493
     28 N         141.9203  135.7089  153.7353 N.2     1  UNL1        0.0798
     29 N         141.1634  134.4139  153.7479 N.2     1  UNL1       -0.0381
     30 C         141.8642  133.4765  154.6860 C.2     1  UNL1        0.1169
     31 C         141.5725  132.0637  155.0970 C.3     1  UNL1        0.0759
     32 C         142.4708  131.3666  156.0753 C.2     1  UNL1       -0.0158
     33 C         143.6608  132.0822  156.6426 C.2     1  UNL1        0.0678
     34 C         143.9525  133.4950  156.2316 C.2     1  UNL1        0.0123
     35 C         143.0542  134.1921  155.2533 C.2     1  UNL1        0.1019
     36 C         144.5591  131.3850  157.6209 C.3     1  UNL1        0.4183
     37 F         145.4574  130.6879  158.5992 F       1  UNL1       -0.1659
     38 F         143.9748  130.0642  157.2162 F       1  UNL1       -0.1659
     39 F         145.1435  132.7059  158.0255 F       1  UNL1       -0.1659
@<TRIPOS>BOND
     1     1     2    2
     2     2    24    1
     3    24    25    1
     4    25    27    1
     5    27    28    2
     6    28    29    1
     7    29    30    2
     8    30    31    1
     9    31    32    1
    10    32    33    2
    11    33    36    1
    12    36    37    1
    13    36    38    1
    14    36    39    1
    15    33    34    1
    16    34    35    2
    17     2     3   am
    18     3     5    1
    19     5     6    1
    20     6     7    1
    21     9     7    1
    22     9    10    1
    23    10    11    1
    24    11    12    1
    25    12    15    1
    26    15    16   ar
    27    16    17   ar
    28    17    18   ar
    29    18    19   ar
    30    19    20   ar
    31    19    21    1
    32    21    22    1
    33    22    23    1
    34    12    13    1
    35    13    14    1
    36     7     8    1
    37    35    27    1
    38     8     5    1
    39    35    30    1
    40    14     9    1
    41    20    15   ar
    42    23    18    1
    43    25    26    1
    44     3     4    1
@<TRIPOS>MOLECULE
*****
 39 44 0 0 0
SMALL
GASTEIGER

@<TRIPOS>ATOM
      1 O         137.3318  142.8929  157.4593 O.2     1  UNL1       -0.2706
      2 C         137.0782  141.5431  156.8562 C.2     1  UNL1        0.2701
      3 N         137.2795  140.3045  157.6779 N.am    1  UNL1       -0.2999
      4 H         137.1130  139.4186  157.2821 H       1  UNL1        0.1496
      5 C         137.7344  140.4158  159.1029 C.3     1  UNL1        0.1035
      6 C         138.7799  141.2145  159.8233 C.3     1  UNL1        0.0933
      7 N         138.3778  140.5730  161.1183 N.3     1  UNL1       -0.2711
      8 C         137.3323  139.7742  160.3979 C.3     1  UNL1        0.0933
      9 C         138.8328  140.6843  162.5433 C.3     1  UNL1        0.0576
     10 C         140.0905  139.9965  162.9848 C.3     1  UNL1        0.0163
     11 C         140.5455  140.1077  164.4099 C.3     1  UNL1        0.0057
     12 C         139.7428  140.9067  165.3933 C.3     1  UNL1        0.0225
     13 C         138.4850  141.5946  164.9516 C.3     1  UNL1        0.0057
     14 C         138.0301  141.4833  163.5267 C.3     1  UNL1        0.0163
     15 C         140.1977  141.0181  166.8182 C.ar    1  UNL1       -0.0193
     16 C         139.5841  140.1441  167.8718 C.ar    1  UNL1       -0.0010
     17 C         140.0389  140.2553  169.2969 C.ar    1  UNL1        0.0399
     18 C         141.1073  141.2405  169.6683 C.ar    1  UNL1        0.1764
     19 C         141.7208  142.1144  168.6149 C.ar    1  UNL1        0.1761
     20 C         141.2660  142.0032  167.1898 C.ar    1  UNL1        0.0359
     21 O         142.7468  142.9865  169.2758 O.3     1  UNL1       -0.4346
     22 C         142.7673  142.6515  170.7378 C.3     1  UNL1        0.4294
     23 O         141.7541  141.5725  170.9805 O.3     1  UNL1       -0.4346
     24 C         136.6232  141.4319  155.4312 C.3     1  UNL1        0.2850
     25 N         135.1623  141.5180  155.1014 N.pl3   1  UNL1       -0.2091
     26 H         134.8434  142.1824  154.4486 H       1  UNL1        0.2928
     27 C         134.1875  140.5918  155.7661 C.2     1  UNL1        0.3493
     28 N         134.5335  139.3490  156.5314 N.2     1  UNL1        0.0798
     29 N         133.2554  138.7349  157.0205 N.2     1  UNL1       -0.0381
     30 C         132.1194  139.5982  156.5574 C.2     1  UNL1        0.1169
     31 C         130.6349  139.4875  156.7415 C.3     1  UNL1        0.0759
     32 C         129.7265  140.5245  156.1504 C.2     1  UNL1       -0.0158
     33 C         130.3026  141.6721  155.3751 C.2     1  UNL1        0.0678
     34 C         131.7871  141.7828  155.1910 C.2     1  UNL1        0.0123
     35 C         132.6955  140.7458  155.7821 C.2     1  UNL1        0.1019
     36 C         129.3941  142.7091  154.7840 C.3     1  UNL1        0.4183
     37 F         128.4857  143.7460  154.1928 F       1  UNL1       -0.1659
     38 F         130.2049  143.7904  155.4347 F       1  UNL1       -0.1659
     39 F         128.5834  141.6278  154.1333 F       1  UNL1       -0.1659
@<TRIPOS>BOND
     1     1     2    2
     2     2    24    1
     3    24    25    1
     4    25    27    1
     5    27    28    2
     6    28    29    1
     7    29    30    2
     8    30    31    1
     9    31    32    1
    10    32    33    2
    11    33    36    1
    12    36    37    1
    13    36    38    1
    14    36    39    1
    15    33    34    1
    16    34    35    2
    17     2     3   am
    18     3     5    1
    19     5     6    1
    20     6     7    1
    21     9     7    1
    22     9    10    1
    23    10    11    1
    24    11    12    1
    25    12    15    1
    26    15    16   ar
    27    16    17   ar
    28    17    18   ar
    29    18    19   ar
    30    19    20   ar
    31    19    21    1
    32    21    22    1
    33    22    23    1
    34    12    13    1
    35    13    14    1
    36     7     8    1
    37    35    27    1
    38     8     5    1
    39    35    30    1
    40    14     9    1
    41    20    15   ar
    42    23    18    1
    43    25    26    1
    44     3     4    1
@<TRIPOS>MOLECULE
*****
 39 44 0 0 0
SMALL
GASTEIGER

@<TRIPOS>ATOM
      1 O         140.4803  137.8550  157.4964 O.2     1  UNL1       -0.2706
      2 C         141.8347  137.3931  157.0468 C.2     1  UNL1        0.2701
      3 N         143.0232  137.5678  157.9451 N.am    1  UNL1       -0.2999
      4 H         143.9122  137.2647  157.6500 H       1  UNL1        0.1496
      5 C         142.8572  138.2044  159.2931 C.3     1  UNL1        0.1035
      6 C         143.5584  139.2976  160.0435 C.3     1  UNL1        0.0933
      7 N         142.6223  139.1047  161.1995 N.3     1  UNL1       -0.2711
      8 C         141.9210  138.0115  160.4492 C.3     1  UNL1        0.0933
      9 C         142.4563  139.7413  162.5476 C.3     1  UNL1        0.0576
     10 C         141.3131  140.6795  162.7983 C.3     1  UNL1        0.0163
     11 C         141.1470  141.3161  164.1463 C.3     1  UNL1        0.0057
     12 C         142.1243  141.0146  165.2436 C.3     1  UNL1        0.0225
     13 C         143.2675  140.0763  164.9928 C.3     1  UNL1        0.0057
     14 C         143.4335  139.4398  163.6449 C.3     1  UNL1        0.0163
     15 C         141.9583  141.6511  166.5916 C.ar    1  UNL1       -0.0193
     16 C         140.5931  142.0457  167.0718 C.ar    1  UNL1       -0.0010
     17 C         140.4271  142.6823  168.4198 C.ar    1  UNL1        0.0399
     18 C         141.6263  142.9242  169.2877 C.ar    1  UNL1        0.1764
     19 C         142.9915  142.5297  168.8076 C.ar    1  UNL1        0.1761
     20 C         143.1575  141.8931  167.4596 C.ar    1  UNL1        0.0359
     21 O         143.9807  142.8902  169.8761 O.3     1  UNL1       -0.4346
     22 C         143.2268  143.5075  171.0165 C.3     1  UNL1        0.4294
     23 O         141.7717  143.5286  170.6529 O.3     1  UNL1       -0.4346
     24 C         142.0008  136.7565  155.6988 C.3     1  UNL1        0.2850
     25 N         141.6073  135.3237  155.4923 N.pl3   1  UNL1       -0.2091
     26 H         140.8428  135.1017  154.9131 H       1  UNL1        0.2928
     27 C         142.3785  134.2292  156.1686 C.2     1  UNL1        0.3493
     28 N         143.4729  134.4154  157.1774 N.2     1  UNL1        0.0798
     29 N         143.9615  133.0576  157.5869 N.2     1  UNL1       -0.0381
     30 C         143.1692  132.0324  156.8313 C.2     1  UNL1        0.1169
     31 C         143.2122  130.5330  156.8281 C.3     1  UNL1        0.0759
     32 C         142.2768  129.7578  155.9484 C.2     1  UNL1       -0.0158
     33 C         141.2984  130.4819  155.0718 C.2     1  UNL1        0.0678
     34 C         141.2555  131.9812  155.0749 C.2     1  UNL1        0.0123
     35 C         142.1908  132.7565  155.9546 C.2     1  UNL1        0.1019
     36 C         140.3630  129.7066  154.1920 C.3     1  UNL1        0.4183
     37 F         139.4277  128.9313  153.3122 F       1  UNL1       -0.1659
     38 F         139.3728  129.6260  155.3157 F       1  UNL1       -0.1659
     39 F         141.3533  129.7871  153.0682 F       1  UNL1       -0.1659
@<TRIPOS>BOND
     1     1     2    2
     2     2    24    1
     3    24    25    1
     4    25    27    1
     5    27    28    2
     6    28    29    1
     7    29    30    2
     8    30    31    1
     9    31    32    1
    10    32    33    2
    11    33    36    1
    12    36    37    1
    13    36    38    1
    14    36    39    1
    15    33    34    1
    16    34    35    2
    17     2     3   am
    18     3     5    1
    19     5     6    1
    20     6     7    1
    21     9     7    1
    22     9    10    1
    23    10    11    1
    24    11    12    1
    25    12    15    1
    26    15    16   ar
    27    16    17   ar
    28    17    18   ar
    29    18    19   ar
    30    19    20   ar
    31    19    21    1
    32    21    22    1
    33    22    23    1
    34    12    13    1
    35    13    14    1
    36     7     8    1
    37    35    27    1
    38     8     5    1
    39    35    30    1
    40    14     9    1
    41    20    15   ar
    42    23    18    1
    43    25    26    1
    44     3     4    1
@<TRIPOS>MOLECULE
*****
 39 44 0 0 0
SMALL
GASTEIGER

@<TRIPOS>ATOM
      1 O         140.2486  139.6193  157.2111 O.2     1  UNL1       -0.2706
      2 C         138.8315  139.8535  156.7785 C.2     1  UNL1        0.2701
      3 N         137.7875  140.2148  157.7932 N.am    1  UNL1       -0.2999
      4 H         136.8575  140.3685  157.5092 H       1  UNL1        0.1496
      5 C         138.1606  140.3419  159.2405 C.3     1  UNL1        0.1035
      6 C         138.2148  141.4707  160.2267 C.3     1  UNL1        0.0933
      7 N         138.6883  140.5216  161.2873 N.3     1  UNL1       -0.2711
      8 C         138.6342  139.3926  160.3011 C.3     1  UNL1        0.0933
      9 C         139.0615  140.6487  162.7345 C.3     1  UNL1        0.0576
     10 C         138.0427  140.3682  163.7992 C.3     1  UNL1        0.0163
     11 C         138.4158  140.4954  165.2464 C.3     1  UNL1        0.0057
     12 C         139.8077  140.9029  165.6291 C.3     1  UNL1        0.0225
     13 C         140.8265  141.1834  164.5644 C.3     1  UNL1        0.0057
     14 C         140.4534  141.0562  163.1172 C.3     1  UNL1        0.0163
     15 C         140.1809  141.0301  167.0763 C.ar    1  UNL1       -0.0193
     16 C         139.5084  140.1675  168.1029 C.ar    1  UNL1       -0.0010
     17 C         139.8815  140.2945  169.5502 C.ar    1  UNL1        0.0399
     18 C         140.9272  141.2842  169.9709 C.ar    1  UNL1        0.1764
     19 C         141.5997  142.1468  168.9444 C.ar    1  UNL1        0.1761
     20 C         141.2266  142.0197  167.4971 C.ar    1  UNL1        0.0359
     21 O         142.5866  143.0266  169.6530 O.3     1  UNL1       -0.4346
     22 C         142.5240  142.7077  171.1174 C.3     1  UNL1        0.4294
     23 O         141.4985  141.6308  171.3139 O.3     1  UNL1       -0.4346
     24 C         138.4584  139.7264  155.3313 C.3     1  UNL1        0.2850
     25 N         137.1152  139.1792  154.9482 N.pl3   1  UNL1       -0.2091
     26 H         136.9495  138.2095  154.9866 H       1  UNL1        0.2928
     27 C         136.0245  140.1096  154.5068 C.2     1  UNL1        0.3493
     28 N         136.1230  141.1245  153.4067 N.2     1  UNL1        0.0798
     29 N         134.8032  141.8305  153.3080 N.2     1  UNL1       -0.0381
     30 C         133.8891  141.2520  154.3471 C.2     1  UNL1        0.1169
     31 C         132.4670  141.5563  154.7143 C.3     1  UNL1        0.0759
     32 C         131.7997  140.7969  155.8224 C.2     1  UNL1       -0.0158
     33 C         132.5545  139.7333  156.5634 C.2     1  UNL1        0.0678
     34 C         133.9766  139.4290  156.1961 C.2     1  UNL1        0.0123
     35 C         134.6439  140.1884  155.0880 C.2     1  UNL1        0.1019
     36 C         131.8871  138.9739  157.6716 C.3     1  UNL1        0.4183
     37 F         131.2197  138.2147  158.7797 F       1  UNL1       -0.1659
     38 F         132.9433  137.9128  157.5806 F       1  UNL1       -0.1659
     39 F         130.8309  140.0351  157.7626 F       1  UNL1       -0.1659
@<TRIPOS>BOND
     1     1     2    2
     2     2    24    1
     3    24    25    1
     4    25    27    1
     5    27    28    2
     6    28    29    1
     7    29    30    2
     8    30    31    1
     9    31    32    1
    10    32    33    2
    11    33    36    1
    12    36    37    1
    13    36    38    1
    14    36    39    1
    15    33    34    1
    16    34    35    2
    17     2     3   am
    18     3     5    1
    19     5     6    1
    20     6     7    1
    21     9     7    1
    22     9    10    1
    23    10    11    1
    24    11    12    1
    25    12    15    1
    26    15    16   ar
    27    16    17   ar
    28    17    18   ar
    29    18    19   ar
    30    19    20   ar
    31    19    21    1
    32    21    22    1
    33    22    23    1
    34    12    13    1
    35    13    14    1
    36     7     8    1
    37    35    27    1
    38     8     5    1
    39    35    30    1
    40    14     9    1
    41    20    15   ar
    42    23    18    1
    43    25    26    1
    44     3     4    1
@<TRIPOS>MOLECULE
*****
 39 44 0 0 0
SMALL
GASTEIGER

@<TRIPOS>ATOM
      1 O         137.6441  140.5130  161.7075 O.2     1  UNL1       -0.2706
      2 C         138.1762  139.2653  161.0671 C.2     1  UNL1        0.2701
      3 N         138.8135  139.3315  159.7108 N.am    1  UNL1       -0.2999
      4 H         139.1627  138.5126  159.2905 H       1  UNL1        0.1496
      5 C         138.9187  140.6455  158.9950 C.3     1  UNL1        0.1035
      6 C         138.1976  141.9583  159.0761 C.3     1  UNL1        0.0933
      7 N         139.0675  142.5037  157.9826 N.3     1  UNL1       -0.2711
      8 C         139.7886  141.1909  157.9014 C.3     1  UNL1        0.0933
      9 C         139.1727  143.8177  157.2668 C.3     1  UNL1        0.0576
     10 C         138.4063  144.0437  155.9974 C.3     1  UNL1        0.0163
     11 C         138.5115  145.3577  155.2816 C.3     1  UNL1        0.0057
     12 C         139.3831  146.4457  155.8352 C.3     1  UNL1        0.0225
     13 C         140.1496  146.2196  157.1047 C.3     1  UNL1        0.0057
     14 C         140.0444  144.9057  157.8204 C.3     1  UNL1        0.0163
     15 C         139.4884  147.7597  155.1195 C.ar    1  UNL1       -0.0193
     16 C         140.2729  147.8586  153.8447 C.ar    1  UNL1       -0.0010
     17 C         140.3783  149.1726  153.1289 C.ar    1  UNL1        0.0399
     18 C         139.6991  150.3876  153.6878 C.ar    1  UNL1        0.1764
     19 C         138.9146  150.2887  154.9625 C.ar    1  UNL1        0.1761
     20 C         138.8093  148.9747  155.6783 C.ar    1  UNL1        0.0359
     21 O         138.3572  151.6468  155.2702 O.3     1  UNL1       -0.4346
     22 C         138.7971  152.5851  154.1857 C.3     1  UNL1        0.4294
     23 O         139.6265  151.8069  153.2077 O.3     1  UNL1       -0.4346
     24 C         138.0710  137.9513  161.7829 C.3     1  UNL1        0.2850
     25 N         138.8615  137.7142  163.0355 N.pl3   1  UNL1       -0.2091
     26 H         138.4029  137.4406  163.8626 H       1  UNL1        0.2928
     27 C         140.3507  137.8939  163.0278 C.2     1  UNL1        0.3493
     28 N         141.2699  137.5869  161.8830 N.2     1  UNL1        0.0798
     29 N         142.6694  137.9154  162.3113 N.2     1  UNL1       -0.0381
     30 C         142.6151  138.4255  163.7209 C.2     1  UNL1        0.1169
     31 C         143.6854  138.9004  164.6584 C.3     1  UNL1        0.0759
     32 C         143.3226  139.3620  166.0387 C.2     1  UNL1       -0.0158
     33 C         141.8895  139.3487  166.4815 C.2     1  UNL1        0.0678
     34 C         140.8192  138.8738  165.5440 C.2     1  UNL1        0.0123
     35 C         141.1820  138.4122  164.1637 C.2     1  UNL1        0.1019
     36 C         141.5268  139.8103  167.8619 C.3     1  UNL1        0.4183
     37 F         141.1641  140.2718  169.2423 F       1  UNL1       -0.1659
     38 F         140.1367  140.1219  167.3925 F       1  UNL1       -0.1659
     39 F         142.9169  139.4987  168.3314 F       1  UNL1       -0.1659
@<TRIPOS>BOND
     1     1     2    2
     2     2    24    1
     3    24    25    1
     4    25    27    1
     5    27    28    2
     6    28    29    1
     7    29    30    2
     8    30    31    1
     9    31    32    1
    10    32    33    2
    11    33    36    1
    12    36    37    1
    13    36    38    1
    14    36    39    1
    15    33    34    1
    16    34    35    2
    17     2     3   am
    18     3     5    1
    19     5     6    1
    20     6     7    1
    21     9     7    1
    22     9    10    1
    23    10    11    1
    24    11    12    1
    25    12    15    1
    26    15    16   ar
    27    16    17   ar
    28    17    18   ar
    29    18    19   ar
    30    19    20   ar
    31    19    21    1
    32    21    22    1
    33    22    23    1
    34    12    13    1
    35    13    14    1
    36     7     8    1
    37    35    27    1
    38     8     5    1
    39    35    30    1
    40    14     9    1
    41    20    15   ar
    42    23    18    1
    43    25    26    1
    44     3     4    1
@<TRIPOS>MOLECULE
*****
 39 44 0 0 0
SMALL
GASTEIGER

@<TRIPOS>ATOM
      1 O         139.9308  141.5134  162.8365 O.2     1  UNL1       -0.2706
      2 C         139.4798  140.0831  162.8071 C.2     1  UNL1        0.2701
      3 N         140.0630  139.1331  161.8035 N.am    1  UNL1       -0.2999
      4 H         139.7670  138.1944  161.7842 H       1  UNL1        0.1496
      5 C         141.0974  139.6135  160.8291 C.3     1  UNL1        0.1035
      6 C         141.0607  140.2776  159.4847 C.3     1  UNL1        0.0933
      7 N         142.5603  140.2929  159.4512 N.3     1  UNL1       -0.2711
      8 C         142.5970  139.6288  160.7957 C.3     1  UNL1        0.0933
      9 C         143.5946  140.7732  158.4769 C.3     1  UNL1        0.0576
     10 C         144.3768  142.0198  158.7672 C.3     1  UNL1        0.0163
     11 C         145.4111  142.5002  157.7928 C.3     1  UNL1        0.0057
     12 C         145.6633  141.7340  156.5282 C.3     1  UNL1        0.0225
     13 C         144.8811  140.4874  156.2379 C.3     1  UNL1        0.0057
     14 C         143.8468  140.0071  157.2122 C.3     1  UNL1        0.0163
     15 C         146.6976  142.2143  155.5538 C.ar    1  UNL1       -0.0193
     16 C         146.3272  143.2147  154.4992 C.ar    1  UNL1       -0.0010
     17 C         147.3614  143.6951  153.5247 C.ar    1  UNL1        0.0399
     18 C         148.7661  143.1750  153.6048 C.ar    1  UNL1        0.1764
     19 C         149.1365  142.1746  154.6593 C.ar    1  UNL1        0.1761
     20 C         148.1023  141.6942  155.6338 C.ar    1  UNL1        0.0359
     21 O         150.5901  141.8436  154.4940 O.3     1  UNL1       -0.4346
     22 C         151.1181  142.6395  153.3373 C.3     1  UNL1        0.4294
     23 O         149.9908  143.4624  152.7878 O.3     1  UNL1       -0.4346
     24 C         138.4454  139.6027  163.7815 C.3     1  UNL1        0.2850
     25 N         138.8254  138.6338  164.8618 N.pl3   1  UNL1       -0.2091
     26 H         139.0664  137.7078  164.6301 H       1  UNL1        0.2928
     27 C         138.8382  139.0758  166.2952 C.2     1  UNL1        0.3493
     28 N         137.8629  138.6580  167.3554 N.2     1  UNL1        0.0798
     29 N         138.2505  139.3373  168.6354 N.2     1  UNL1       -0.0381
     30 C         139.4654  140.1749  168.3662 C.2     1  UNL1        0.1169
     31 C         140.2878  141.0639  169.2512 C.3     1  UNL1        0.0759
     32 C         141.4734  141.7913  168.6899 C.2     1  UNL1       -0.0158
     33 C         141.8366  141.6297  167.2435 C.2     1  UNL1        0.0678
     34 C         141.0142  140.7408  166.3585 C.2     1  UNL1        0.0123
     35 C         139.8286  140.0134  166.9198 C.2     1  UNL1        0.1019
     36 C         143.0223  142.3572  166.6822 C.3     1  UNL1        0.4183
     37 F         144.2079  143.0846  166.1209 F       1  UNL1       -0.1659
     38 F         143.5577  142.5550  168.0693 F       1  UNL1       -0.1659
     39 F         142.4869  142.1594  165.2951 F       1  UNL1       -0.1659
@<TRIPOS>BOND
     1     1     2    2
     2     2    24    1
     3    24    25    1
     4    25    27    1
     5    27    28    2
     6    28    29    1
     7    29    30    2
     8    30    31    1
     9    31    32    1
    10    32    33    2
    11    33    36    1
    12    36    37    1
    13    36    38    1
    14    36    39    1
    15    33    34    1
    16    34    35    2
    17     2     3   am
    18     3     5    1
    19     5     6    1
    20     6     7    1
    21     9     7    1
    22     9    10    1
    23    10    11    1
    24    11    12    1
    25    12    15    1
    26    15    16   ar
    27    16    17   ar
    28    17    18   ar
    29    18    19   ar
    30    19    20   ar
    31    19    21    1
    32    21    22    1
    33    22    23    1
    34    12    13    1
    35    13    14    1
    36     7     8    1
    37    35    27    1
    38     8     5    1
    39    35    30    1
    40    14     9    1
    41    20    15   ar
    42    23    18    1
    43    25    26    1
    44     3     4    1
@<TRIPOS>MOLECULE
*****
 39 44 0 0 0
SMALL
GASTEIGER

@<TRIPOS>ATOM
      1 O         141.9191  140.2875  160.7740 O.2     1  UNL1       -0.2706
      2 C         140.7815  139.3212  160.6254 C.2     1  UNL1        0.2701
      3 N         139.6212  139.6596  159.7370 N.am    1  UNL1       -0.2999
      4 H         138.8746  139.0254  159.6394 H       1  UNL1        0.1496
      5 C         139.5986  140.9643  158.9972 C.3     1  UNL1        0.1035
      6 C         138.8436  142.2523  159.1413 C.3     1  UNL1        0.0933
      7 N         139.5667  142.8094  157.9510 N.3     1  UNL1       -0.2711
      8 C         140.3218  141.5214  157.8069 C.3     1  UNL1        0.0933
      9 C         139.5441  144.1141  157.2113 C.3     1  UNL1        0.0576
     10 C         138.6939  144.2664  155.9850 C.3     1  UNL1        0.0163
     11 C         138.6713  145.5711  155.2452 C.3     1  UNL1        0.0057
     12 C         139.4989  146.7236  155.7318 C.3     1  UNL1        0.0225
     13 C         140.3492  146.5713  156.9582 C.3     1  UNL1        0.0057
     14 C         140.3718  145.2666  157.6978 C.3     1  UNL1        0.0163
     15 C         139.4764  148.0283  154.9922 C.ar    1  UNL1       -0.0193
     16 C         140.0842  148.1255  153.6242 C.ar    1  UNL1       -0.0010
     17 C         140.0618  149.4302  152.8845 C.ar    1  UNL1        0.0399
     18 C         139.4315  150.6377  153.5127 C.ar    1  UNL1        0.1764
     19 C         138.8237  150.5406  154.8805 C.ar    1  UNL1        0.1761
     20 C         138.8461  149.2358  155.6203 C.ar    1  UNL1        0.0359
     21 O         138.2774  151.8900  155.2420 O.3     1  UNL1       -0.4346
     22 C         138.5476  152.8212  154.0974 C.3     1  UNL1        0.4294
     23 O         139.2609  152.0473  153.0287 O.3     1  UNL1       -0.4346
     24 C         140.8041  138.0165  161.3651 C.3     1  UNL1        0.2850
     25 N         142.0667  137.5524  162.0289 N.pl3   1  UNL1       -0.2091
     26 H         142.5124  136.7310  161.7194 H       1  UNL1        0.2928
     27 C         142.6503  138.3400  163.1643 C.2     1  UNL1        0.3493
     28 N         144.0655  138.8271  163.2638 N.2     1  UNL1        0.0798
     29 N         144.2109  139.5669  164.5605 N.2     1  UNL1       -0.0381
     30 C         142.8856  139.5370  165.2625 C.2     1  UNL1        0.1169
     31 C         142.4325  140.1023  166.5759 C.3     1  UNL1        0.0759
     32 C         141.0149  139.9093  167.0263 C.2     1  UNL1       -0.0158
     33 C         140.0503  139.1510  166.1634 C.2     1  UNL1        0.0678
     34 C         140.5034  138.5857  164.8500 C.2     1  UNL1        0.0123
     35 C         141.9211  138.7788  164.3995 C.2     1  UNL1        0.1019
     36 C         138.6326  138.9580  166.6139 C.3     1  UNL1        0.4183
     37 F         137.2150  138.7651  167.0645 F       1  UNL1       -0.1659
     38 F         138.3754  138.0772  165.4274 F       1  UNL1       -0.1659
     39 F         138.8898  139.8389  167.8005 F       1  UNL1       -0.1659
@<TRIPOS>BOND
     1     1     2    2
     2     2    24    1
     3    24    25    1
     4    25    27    1
     5    27    28    2
     6    28    29    1
     7    29    30    2
     8    30    31    1
     9    31    32    1
    10    32    33    2
    11    33    36    1
    12    36    37    1
    13    36    38    1
    14    36    39    1
    15    33    34    1
    16    34    35    2
    17     2     3   am
    18     3     5    1
    19     5     6    1
    20     6     7    1
    21     9     7    1
    22     9    10    1
    23    10    11    1
    24    11    12    1
    25    12    15    1
    26    15    16   ar
    27    16    17   ar
    28    17    18   ar
    29    18    19   ar
    30    19    20   ar
    31    19    21    1
    32    21    22    1
    33    22    23    1
    34    12    13    1
    35    13    14    1
    36     7     8    1
    37    35    27    1
    38     8     5    1
    39    35    30    1
    40    14     9    1
    41    20    15   ar
    42    23    18    1
    43    25    26    1
    44     3     4    1
@<TRIPOS>MOLECULE
*****
 39 44 0 0 0
SMALL
GASTEIGER

@<TRIPOS>ATOM
      1 O         138.7270  141.4624  163.7317 O.2     1  UNL1       -0.2706
      2 C         138.9065  140.0374  163.2990 C.2     1  UNL1        0.2701
      3 N         139.1903  139.7204  161.8607 N.am    1  UNL1       -0.2999
      4 H         139.3081  138.7851  161.5767 H       1  UNL1        0.1496
      5 C         139.2946  140.8284  160.8550 C.3     1  UNL1        0.1035
      6 C         140.2486  141.1710  159.7494 C.3     1  UNL1        0.0933
      7 N         139.4421  142.3954  159.4328 N.3     1  UNL1       -0.2711
      8 C         138.4881  142.0529  160.5384 C.3     1  UNL1        0.0933
      9 C         139.5465  143.5034  158.4271 C.3     1  UNL1        0.0576
     10 C         138.9633  143.3294  157.0561 C.3     1  UNL1        0.0163
     11 C         139.0677  144.4374  156.0504 C.3     1  UNL1        0.0057
     12 C         139.7552  145.7195  156.4157 C.3     1  UNL1        0.0225
     13 C         140.3384  145.8935  157.7867 C.3     1  UNL1        0.0057
     14 C         140.2340  144.7856  158.7923 C.3     1  UNL1        0.0163
     15 C         139.8596  146.8275  155.4101 C.ar    1  UNL1       -0.0193
     16 C         140.6028  146.6072  154.1258 C.ar    1  UNL1       -0.0010
     17 C         140.7073  147.7152  153.1201 C.ar    1  UNL1        0.0399
     18 C         140.0686  149.0435  153.3987 C.ar    1  UNL1        0.1764
     19 C         139.3255  149.2639  154.6829 C.ar    1  UNL1        0.1761
     20 C         139.2210  148.1559  155.6886 C.ar    1  UNL1        0.0359
     21 O         138.8025  150.6698  154.6805 O.3     1  UNL1       -0.4346
     22 C         139.2224  151.3183  153.3948 C.3     1  UNL1        0.4294
     23 O         140.0049  150.3133  152.6026 O.3     1  UNL1       -0.4346
     24 C         138.8021  138.9294  164.3047 C.3     1  UNL1        0.2850
     25 N         139.2420  139.1577  165.7206 N.pl3   1  UNL1       -0.2091
     26 H         138.6362  138.9398  166.4655 H       1  UNL1        0.2928
     27 C         140.6047  139.7181  166.0015 C.2     1  UNL1        0.3493
     28 N         141.8589  139.4107  165.2383 N.2     1  UNL1        0.0798
     29 N         142.9818  140.1869  165.8600 N.2     1  UNL1       -0.0381
     30 C         142.4216  140.9740  167.0075 C.2     1  UNL1        0.1169
     31 C         143.0595  141.9171  167.9840 C.3     1  UNL1        0.0759
     32 C         142.2282  142.5705  169.0479 C.2     1  UNL1       -0.0158
     33 C         140.7591  142.2808  169.1353 C.2     1  UNL1        0.0678
     34 C         140.1212  141.3377  168.1588 C.2     1  UNL1        0.0123
     35 C         140.9525  140.6843  167.0949 C.2     1  UNL1        0.1019
     36 C         139.9278  142.9342  170.1994 C.3     1  UNL1        0.4183
     37 F         139.0966  143.5876  171.2633 F       1  UNL1       -0.1659
     38 F         139.1399  141.6681  170.3614 F       1  UNL1       -0.1659
     39 F         140.7156  144.2003  170.0373 F       1  UNL1       -0.1659
@<TRIPOS>BOND
     1     1     2    2
     2     2    24    1
     3    24    25    1
     4    25    27    1
     5    27    28    2
     6    28    29    1
     7    29    30    2
     8    30    31    1
     9    31    32    1
    10    32    33    2
    11    33    36    1
    12    36    37    1
    13    36    38    1
    14    36    39    1
    15    33    34    1
    16    34    35    2
    17     2     3   am
    18     3     5    1
    19     5     6    1
    20     6     7    1
    21     9     7    1
    22     9    10    1
    23    10    11    1
    24    11    12    1
    25    12    15    1
    26    15    16   ar
    27    16    17   ar
    28    17    18   ar
    29    18    19   ar
    30    19    20   ar
    31    19    21    1
    32    21    22    1
    33    22    23    1
    34    12    13    1
    35    13    14    1
    36     7     8    1
    37    35    27    1
    38     8     5    1
    39    35    30    1
    40    14     9    1
    41    20    15   ar
    42    23    18    1
    43    25    26    1
    44     3     4    1
