@<TRIPOS>MOLECULE
*****
 25 27 0 0 0
SMALL
GASTEIGER

@<TRIPOS>ATOM
      1 C         140.6677  141.1303  167.3992 C.3     1  UNL1        0.0847
      2 N         141.1646  140.9878  168.8074 N.3     1  UNL1       -0.2676
      3 C         142.3722  140.1459  169.0951 C.3     1  UNL1        0.0896
      4 C         142.8690  140.0035  170.5032 C.3     1  UNL1        0.0862
      5 N         142.1582  140.7029  171.6236 N.3     1  UNL1       -0.2951
      6 C         140.9505  141.5448  171.3360 C.3     1  UNL1        0.0862
      7 C         140.4537  141.6873  169.9279 C.3     1  UNL1        0.0896
      8 H         142.8424  141.3128  172.0712 H       1  UNL1        0.1233
      9 C         140.0680  139.9509  166.6926 C.ar    1  UNL1       -0.0075
     10 C         138.6857  139.4881  167.0461 C.ar    1  UNL1       -0.0030
     11 C         138.0860  138.3087  166.3394 C.ar    1  UNL1       -0.0003
     12 C         138.8686  137.5920  165.2793 C.ar    1  UNL1       -0.0000
     13 C         140.2510  138.0548  164.9258 C.ar    1  UNL1       -0.0003
     14 C         140.8507  139.2342  165.6324 C.ar    1  UNL1       -0.0030
     15 C         140.7707  142.4521  166.6977 C.3     1  UNL1        0.0499
     16 C         141.5182  143.0307  164.2777 C.ar    1  UNL1        0.1344
     17 C         142.6102  143.2654  163.2765 C.ar    1  UNL1        0.0366
     18 C         144.0467  143.1562  163.6941 C.ar    1  UNL1        0.0031
     19 C         144.3912  142.8123  165.1129 C.ar    1  UNL1       -0.0001
     20 C         143.2993  142.5776  166.1141 C.ar    1  UNL1       -0.0012
     21 C         141.8627  142.6868  165.6965 C.ar    1  UNL1        0.0135
     22 O         140.0816  143.1399  163.8601 O.3     1  UNL1       -0.4795
     23 C         139.8784  140.9386  162.4951 C.3     1  UNL1        0.0472
     24 C         139.3119  141.9064  163.4914 C.3     1  UNL1        0.1661
     25 C         137.9756  141.6406  164.1189 C.3     1  UNL1        0.0472
@<TRIPOS>BOND
     1    23    24    1
     2    24    25    1
     3    24    22    1
     4    22    16    1
     5    16    17   ar
     6    17    18   ar
     7    18    19   ar
     8    19    20   ar
     9    20    21   ar
    10    21    15    1
    11    15     1    1
    12     1     9    1
    13     9    10   ar
    14    10    11   ar
    15    11    12   ar
    16    12    13   ar
    17    13    14   ar
    18     1     2    1
    19     2     3    1
    20     3     4    1
    21     4     5    1
    22     5     6    1
    23     6     7    1
    24    21    16   ar
    25    14     9   ar
    26     7     2    1
    27     5     8    1
@<TRIPOS>MOLECULE
*****
 25 27 0 0 0
SMALL
GASTEIGER

@<TRIPOS>ATOM
      1 C         141.2747  140.8825  167.2300 C.3     1  UNL1        0.0847
      2 N         141.5441  140.8592  168.7055 N.3     1  UNL1       -0.2676
      3 C         140.7650  141.7529  169.6244 C.3     1  UNL1        0.0896
      4 C         141.0344  141.7296  171.0997 C.3     1  UNL1        0.0862
      5 N         142.0828  140.8126  171.6563 N.3     1  UNL1       -0.2951
      6 C         142.8619  139.9189  170.7375 C.3     1  UNL1        0.0862
      7 C         142.5926  139.9422  169.2621 C.3     1  UNL1        0.0896
      8 H         141.6159  140.2064  172.3307 H       1  UNL1        0.1233
      9 C         140.3981  139.8345  166.6110 C.ar    1  UNL1       -0.0075
     10 C         140.9330  138.9608  165.5154 C.ar    1  UNL1       -0.0030
     11 C         140.0564  137.9127  164.8964 C.ar    1  UNL1       -0.0003
     12 C         138.6449  137.7384  165.3731 C.ar    1  UNL1       -0.0000
     13 C         138.1100  138.6121  166.4687 C.ar    1  UNL1       -0.0003
     14 C         138.9866  139.6601  167.0877 C.ar    1  UNL1       -0.0030
     15 C         141.8819  141.9539  166.3736 C.3     1  UNL1        0.0499
     16 C         141.3019  143.2044  164.1714 C.ar    1  UNL1        0.1344
     17 C         140.4177  144.1424  163.4043 C.ar    1  UNL1        0.0366
     18 C         139.2294  144.7679  164.0725 C.ar    1  UNL1        0.0031
     19 C         138.9251  144.4554  165.5077 C.ar    1  UNL1       -0.0001
     20 C         139.8093  143.5174  166.2747 C.ar    1  UNL1       -0.0012
     21 C         140.9977  142.8919  165.6066 C.ar    1  UNL1        0.0135
     22 O         142.4903  142.5789  163.5032 O.3     1  UNL1       -0.4795
     23 C         144.0434  144.5879  162.9541 C.3     1  UNL1        0.0472
     24 C         143.8326  143.2434  163.5848 C.3     1  UNL1        0.1661
     25 C         144.9641  142.5634  164.2972 C.3     1  UNL1        0.0472
@<TRIPOS>BOND
     1    23    24    1
     2    24    25    1
     3    24    22    1
     4    22    16    1
     5    16    17   ar
     6    17    18   ar
     7    18    19   ar
     8    19    20   ar
     9    20    21   ar
    10    21    15    1
    11    15     1    1
    12     1     9    1
    13     9    10   ar
    14    10    11   ar
    15    11    12   ar
    16    12    13   ar
    17    13    14   ar
    18     1     2    1
    19     2     3    1
    20     3     4    1
    21     4     5    1
    22     5     6    1
    23     6     7    1
    24    21    16   ar
    25    14     9   ar
    26     7     2    1
    27     5     8    1
@<TRIPOS>MOLECULE
*****
 25 27 0 0 0
SMALL
GASTEIGER

@<TRIPOS>ATOM
      1 C         141.0223  142.2844  166.9121 C.3     1  UNL1        0.0847
      2 N         140.7063  141.9308  168.3353 N.3     1  UNL1       -0.2676
      3 C         140.4333  143.0156  169.3346 C.3     1  UNL1        0.0896
      4 C         140.1172  142.6621  170.7577 C.3     1  UNL1        0.0862
      5 N         140.0743  141.2239  171.1814 N.3     1  UNL1       -0.2951
      6 C         140.3473  140.1391  170.1820 C.3     1  UNL1        0.0862
      7 C         140.6633  140.4926  168.7590 C.3     1  UNL1        0.0896
      8 H         139.1394  141.0540  171.5523 H       1  UNL1        0.1233
      9 C         139.9148  142.4225  165.9100 C.ar    1  UNL1       -0.0075
     10 C         139.2573  141.1982  165.3453 C.ar    1  UNL1       -0.0030
     11 C         138.1498  141.3364  164.3431 C.ar    1  UNL1       -0.0003
     12 C         137.6998  142.6988  163.9056 C.ar    1  UNL1       -0.0000
     13 C         138.3573  143.9230  164.4703 C.ar    1  UNL1       -0.0003
     14 C         139.4648  143.7849  165.4725 C.ar    1  UNL1       -0.0030
     15 C         142.4458  142.4998  166.4913 C.3     1  UNL1        0.0499
     16 C         144.3104  141.7562  164.8418 C.ar    1  UNL1        0.1344
     17 C         145.0544  140.6669  164.1278 C.ar    1  UNL1        0.0366
     18 C         144.6779  139.2319  164.3491 C.ar    1  UNL1        0.0031
     19 C         143.5574  138.8862  165.2845 C.ar    1  UNL1       -0.0001
     20 C         142.8134  139.9755  165.9986 C.ar    1  UNL1       -0.0012
     21 C         143.1899  141.4104  165.7772 C.ar    1  UNL1        0.0135
     22 O         144.6868  143.1912  164.6205 O.3     1  UNL1       -0.4795
     23 C         144.3603  143.6242  162.0796 C.3     1  UNL1        0.0472
     24 C         144.0523  143.9698  163.5064 C.3     1  UNL1        0.1661
     25 C         143.1097  145.0940  163.8191 C.3     1  UNL1        0.0472
@<TRIPOS>BOND
     1    23    24    1
     2    24    25    1
     3    24    22    1
     4    22    16    1
     5    16    17   ar
     6    17    18   ar
     7    18    19   ar
     8    19    20   ar
     9    20    21   ar
    10    21    15    1
    11    15     1    1
    12     1     9    1
    13     9    10   ar
    14    10    11   ar
    15    11    12   ar
    16    12    13   ar
    17    13    14   ar
    18     1     2    1
    19     2     3    1
    20     3     4    1
    21     4     5    1
    22     5     6    1
    23     6     7    1
    24    21    16   ar
    25    14     9   ar
    26     7     2    1
    27     5     8    1
@<TRIPOS>MOLECULE
*****
 25 27 0 0 0
SMALL
GASTEIGER

@<TRIPOS>ATOM
      1 C         140.5251  141.7254  166.4011 C.3     1  UNL1        0.0847
      2 N         140.2353  141.6972  167.8727 N.3     1  UNL1       -0.2676
      3 C         140.5231  142.9031  168.7170 C.3     1  UNL1        0.0896
      4 C         140.2334  142.8749  170.1884 C.3     1  UNL1        0.0862
      5 N         139.6559  141.6408  170.8156 N.3     1  UNL1       -0.2951
      6 C         139.3681  140.4349  169.9713 C.3     1  UNL1        0.0862
      7 C         139.6578  140.4631  168.4998 C.3     1  UNL1        0.0896
      8 H         138.7735  141.9153  171.2474 H       1  UNL1        0.1233
      9 C         139.6229  142.4840  165.4735 C.ar    1  UNL1       -0.0075
     10 C         138.4641  141.7905  164.8207 C.ar    1  UNL1       -0.0030
     11 C         137.5618  142.5491  163.8930 C.ar    1  UNL1       -0.0003
     12 C         137.8185  144.0012  163.6182 C.ar    1  UNL1       -0.0000
     13 C         138.9774  144.6947  164.2709 C.ar    1  UNL1       -0.0003
     14 C         139.8796  143.9361  165.1986 C.ar    1  UNL1       -0.0030
     15 C         141.7171  140.9950  165.8573 C.3     1  UNL1        0.0499
     16 C         142.3314  139.5812  163.7660 C.ar    1  UNL1        0.1344
     17 C         142.1396  138.3534  162.9258 C.ar    1  UNL1        0.0366
     18 C         141.1418  137.3117  163.3370 C.ar    1  UNL1        0.0031
     19 C         140.3357  137.4978  164.5882 C.ar    1  UNL1       -0.0001
     20 C         140.5274  138.7255  165.4283 C.ar    1  UNL1       -0.0012
     21 C         141.5253  139.7672  165.0172 C.ar    1  UNL1        0.0135
     22 O         143.3293  140.6230  163.3549 O.3     1  UNL1       -0.4795
     23 C         145.7132  141.6396  163.5371 C.3     1  UNL1        0.0472
     24 C         144.7522  140.5229  163.8188 C.3     1  UNL1        0.1661
     25 C         145.2142  139.3060  164.5644 C.3     1  UNL1        0.0472
@<TRIPOS>BOND
     1    23    24    1
     2    24    25    1
     3    24    22    1
     4    22    16    1
     5    16    17   ar
     6    17    18   ar
     7    18    19   ar
     8    19    20   ar
     9    20    21   ar
    10    21    15    1
    11    15     1    1
    12     1     9    1
    13     9    10   ar
    14    10    11   ar
    15    11    12   ar
    16    12    13   ar
    17    13    14   ar
    18     1     2    1
    19     2     3    1
    20     3     4    1
    21     4     5    1
    22     5     6    1
    23     6     7    1
    24    21    16   ar
    25    14     9   ar
    26     7     2    1
    27     5     8    1
@<TRIPOS>MOLECULE
*****
 25 27 0 0 0
SMALL
GASTEIGER

@<TRIPOS>ATOM
      1 C         142.0245  140.9902  166.6568 C.3     1  UNL1        0.0847
      2 N         142.2221  141.1394  168.1363 N.3     1  UNL1       -0.2676
      3 C         142.1007  142.4904  168.7767 C.3     1  UNL1        0.0896
      4 C         142.2983  142.6397  170.2561 C.3     1  UNL1        0.0862
      5 N         142.6173  141.4379  171.0951 N.3     1  UNL1       -0.2951
      6 C         142.7386  140.0869  170.4547 C.3     1  UNL1        0.0862
      7 C         142.5411  139.9377  168.9753 C.3     1  UNL1        0.0896
      8 H         141.8814  141.3657  171.7978 H       1  UNL1        0.1233
      9 C         143.1867  141.1605  165.7240 C.ar    1  UNL1       -0.0075
     10 C         143.7870  139.9639  165.0475 C.ar    1  UNL1       -0.0030
     11 C         144.9493  140.1343  164.1146 C.ar    1  UNL1       -0.0003
     12 C         145.5112  141.5012  163.8583 C.ar    1  UNL1       -0.0000
     13 C         144.9109  142.6978  164.5349 C.ar    1  UNL1       -0.0003
     14 C         143.7487  142.5275  165.4677 C.ar    1  UNL1       -0.0030
     15 C         140.6646  140.6707  166.1103 C.3     1  UNL1        0.0499
     16 C         138.5165  141.4437  164.8700 C.ar    1  UNL1        0.1344
     17 C         137.6322  142.5461  164.3674 C.ar    1  UNL1        0.0366
     18 C         138.0117  143.9781  164.6026 C.ar    1  UNL1        0.0031
     19 C         139.2754  144.3076  165.3403 C.ar    1  UNL1       -0.0001
     20 C         140.1598  143.2052  165.8429 C.ar    1  UNL1       -0.0012
     21 C         139.7803  141.7732  165.6077 C.ar    1  UNL1        0.0135
     22 O         138.1371  140.0116  164.6348 O.3     1  UNL1       -0.4795
     23 C         138.9387  137.7932  163.5458 C.3     1  UNL1        0.0472
     24 C         138.6975  139.2709  163.4569 C.3     1  UNL1        0.1661
     25 C         139.0166  140.0082  162.1901 C.3     1  UNL1        0.0472
@<TRIPOS>BOND
     1    23    24    1
     2    24    25    1
     3    24    22    1
     4    22    16    1
     5    16    17   ar
     6    17    18   ar
     7    18    19   ar
     8    19    20   ar
     9    20    21   ar
    10    21    15    1
    11    15     1    1
    12     1     9    1
    13     9    10   ar
    14    10    11   ar
    15    11    12   ar
    16    12    13   ar
    17    13    14   ar
    18     1     2    1
    19     2     3    1
    20     3     4    1
    21     4     5    1
    22     5     6    1
    23     6     7    1
    24    21    16   ar
    25    14     9   ar
    26     7     2    1
    27     5     8    1
@<TRIPOS>MOLECULE
*****
 25 27 0 0 0
SMALL
GASTEIGER

@<TRIPOS>ATOM
      1 C         141.5785  142.1656  166.1297 C.3     1  UNL1        0.0847
      2 N         141.0883  143.2861  165.2612 N.3     1  UNL1       -0.2676
      3 C         139.6395  143.6743  165.2844 C.3     1  UNL1        0.0896
      4 C         139.1492  144.7946  164.4159 C.3     1  UNL1        0.0862
      5 N         140.1077  145.5269  163.5242 N.3     1  UNL1       -0.2951
      6 C         141.5564  145.1387  163.5010 C.3     1  UNL1        0.0862
      7 C         142.0467  144.0183  164.3695 C.3     1  UNL1        0.0896
      8 H         140.0704  146.5094  163.7957 H       1  UNL1        0.1233
      9 C         141.8493  142.4081  167.5850 C.ar    1  UNL1       -0.0075
     10 C         143.2283  142.1981  168.1365 C.ar    1  UNL1       -0.0030
     11 C         143.4991  142.4406  169.5918 C.ar    1  UNL1       -0.0003
     12 C         142.3908  142.8931  170.4956 C.ar    1  UNL1       -0.0000
     13 C         141.0117  143.1031  169.9441 C.ar    1  UNL1       -0.0003
     14 C         140.7410  142.8607  168.4889 C.ar    1  UNL1       -0.0030
     15 C         141.7980  140.8027  165.5429 C.3     1  UNL1        0.0499
     16 C         140.9204  138.4168  165.0069 C.ar    1  UNL1        0.1344
     17 C         139.8083  137.4103  165.0115 C.ar    1  UNL1        0.0366
     18 C         138.4616  137.7831  165.5567 C.ar    1  UNL1        0.0031
     19 C         138.2270  139.1625  166.0974 C.ar    1  UNL1       -0.0001
     20 C         139.3391  140.1690  166.0928 C.ar    1  UNL1       -0.0012
     21 C         140.6858  139.7962  165.5475 C.ar    1  UNL1        0.0135
     22 O         142.2672  138.0440  164.4617 O.3     1  UNL1       -0.4795
     23 C         141.6798  137.7992  161.9428 C.3     1  UNL1        0.0472
     24 C         142.5916  138.3056  163.0207 C.3     1  UNL1        0.1661
     25 C         143.8279  139.0738  162.6578 C.3     1  UNL1        0.0472
@<TRIPOS>BOND
     1    23    24    1
     2    24    25    1
     3    24    22    1
     4    22    16    1
     5    16    17   ar
     6    17    18   ar
     7    18    19   ar
     8    19    20   ar
     9    20    21   ar
    10    21    15    1
    11    15     1    1
    12     1     9    1
    13     9    10   ar
    14    10    11   ar
    15    11    12   ar
    16    12    13   ar
    17    13    14   ar
    18     1     2    1
    19     2     3    1
    20     3     4    1
    21     4     5    1
    22     5     6    1
    23     6     7    1
    24    21    16   ar
    25    14     9   ar
    26     7     2    1
    27     5     8    1
@<TRIPOS>MOLECULE
*****
 25 27 0 0 0
SMALL
GASTEIGER

@<TRIPOS>ATOM
      1 C         141.6486  141.9480  166.8168 C.3     1  UNL1        0.0847
      2 N         141.5944  141.3133  168.1749 N.3     1  UNL1       -0.2676
      3 C         140.2827  140.8459  168.7325 C.3     1  UNL1        0.0896
      4 C         140.2285  140.2113  170.0905 C.3     1  UNL1        0.0862
      5 N         141.4860  140.0440  170.8909 N.3     1  UNL1       -0.2951
      6 C         142.7977  140.5114  170.3333 C.3     1  UNL1        0.0862
      7 C         142.8519  141.1461  168.9753 C.3     1  UNL1        0.0896
      8 H         141.5847  139.0464  171.0791 H       1  UNL1        0.1233
      9 C         142.8077  141.6720  165.9057 C.ar    1  UNL1       -0.0075
     10 C         143.0432  140.2827  165.3914 C.ar    1  UNL1       -0.0030
     11 C         144.2025  140.0068  164.4802 C.ar    1  UNL1       -0.0003
     12 C         145.1261  141.1200  164.0834 C.ar    1  UNL1       -0.0000
     13 C         144.8905  142.5093  164.5977 C.ar    1  UNL1       -0.0003
     14 C         143.7314  142.7853  165.5088 C.ar    1  UNL1       -0.0030
     15 C         140.5436  142.8586  166.3699 C.3     1  UNL1        0.0499
     16 C         138.9374  143.3413  164.3857 C.ar    1  UNL1        0.1344
     17 C         137.9288  142.8615  163.3845 C.ar    1  UNL1        0.0366
     18 C         137.5177  141.4191  163.3663 C.ar    1  UNL1        0.0031
     19 C         138.1152  140.4565  164.3493 C.ar    1  UNL1       -0.0001
     20 C         139.1238  140.9363  165.3505 C.ar    1  UNL1       -0.0012
     21 C         139.5349  142.3787  165.3687 C.ar    1  UNL1        0.0135
     22 O         139.3486  144.7838  164.4039 O.3     1  UNL1       -0.4795
     23 C         141.7909  145.2500  163.6505 C.3     1  UNL1        0.0472
     24 C         140.3163  145.3008  163.3810 C.3     1  UNL1        0.1661
     25 C         139.8092  145.8687  162.0885 C.3     1  UNL1        0.0472
@<TRIPOS>BOND
     1    23    24    1
     2    24    25    1
     3    24    22    1
     4    22    16    1
     5    16    17   ar
     6    17    18   ar
     7    18    19   ar
     8    19    20   ar
     9    20    21   ar
    10    21    15    1
    11    15     1    1
    12     1     9    1
    13     9    10   ar
    14    10    11   ar
    15    11    12   ar
    16    12    13   ar
    17    13    14   ar
    18     1     2    1
    19     2     3    1
    20     3     4    1
    21     4     5    1
    22     5     6    1
    23     6     7    1
    24    21    16   ar
    25    14     9   ar
    26     7     2    1
    27     5     8    1
@<TRIPOS>MOLECULE
*****
 25 27 0 0 0
SMALL
GASTEIGER

@<TRIPOS>ATOM
      1 C         141.8970  140.9332  164.4174 C.3     1  UNL1        0.0847
      2 N         143.1778  141.3021  163.7293 N.3     1  UNL1       -0.2676
      3 C         144.4784  141.2218  164.4722 C.3     1  UNL1        0.0896
      4 C         145.7592  141.5906  163.7842 C.3     1  UNL1        0.0862
      5 N         145.7394  142.0397  162.3532 N.3     1  UNL1       -0.2951
      6 C         144.4388  142.1200  161.6102 C.3     1  UNL1        0.0862
      7 C         143.1580  141.7512  162.2982 C.3     1  UNL1        0.0896
      8 H         146.3358  141.3953  161.8340 H       1  UNL1        0.1233
      9 C         140.7209  141.8625  164.3613 C.ar    1  UNL1       -0.0075
     10 C         139.6048  141.6022  163.3936 C.ar    1  UNL1       -0.0030
     11 C         138.4286  142.5316  163.3376 C.ar    1  UNL1       -0.0003
     12 C         138.3687  143.7212  164.2492 C.ar    1  UNL1       -0.0000
     13 C         139.4848  143.9815  165.2170 C.ar    1  UNL1       -0.0003
     14 C         140.6609  143.0522  165.2730 C.ar    1  UNL1       -0.0030
     15 C         141.7923  139.6351  165.1616 C.3     1  UNL1        0.0499
     16 C         139.7054  138.0930  165.0299 C.ar    1  UNL1        0.1344
     17 C         138.3825  137.6479  165.5790 C.ar    1  UNL1        0.0366
     18 C         137.8233  138.2996  166.8088 C.ar    1  UNL1        0.0031
     19 C         138.5871  139.3965  167.4896 C.ar    1  UNL1       -0.0001
     20 C         139.9101  139.8417  166.9405 C.ar    1  UNL1       -0.0012
     21 C         140.4692  139.1899  165.7107 C.ar    1  UNL1        0.0135
     22 O         140.2647  137.4413  163.8000 O.3     1  UNL1       -0.4795
     23 C         141.0622  138.4751  161.5539 C.3     1  UNL1        0.0472
     24 C         139.9517  138.0035  162.4451 C.3     1  UNL1        0.1661
     25 C         138.5280  138.0941  161.9813 C.3     1  UNL1        0.0472
@<TRIPOS>BOND
     1    23    24    1
     2    24    25    1
     3    24    22    1
     4    22    16    1
     5    16    17   ar
     6    17    18   ar
     7    18    19   ar
     8    19    20   ar
     9    20    21   ar
    10    21    15    1
    11    15     1    1
    12     1     9    1
    13     9    10   ar
    14    10    11   ar
    15    11    12   ar
    16    12    13   ar
    17    13    14   ar
    18     1     2    1
    19     2     3    1
    20     3     4    1
    21     4     5    1
    22     5     6    1
    23     6     7    1
    24    21    16   ar
    25    14     9   ar
    26     7     2    1
    27     5     8    1
@<TRIPOS>MOLECULE
*****
 25 27 0 0 0
SMALL
GASTEIGER

@<TRIPOS>ATOM
      1 C         141.0731  142.4860  166.2495 C.3     1  UNL1        0.0847
      2 N         140.1764  142.8340  165.0985 N.3     1  UNL1       -0.2676
      3 C         139.6351  144.2264  164.9637 C.3     1  UNL1        0.0896
      4 C         138.7383  144.5744  163.8128 C.3     1  UNL1        0.0862
      5 N         138.3829  143.5299  162.7966 N.3     1  UNL1       -0.2951
      6 C         138.9241  142.1374  162.9313 C.3     1  UNL1        0.0862
      7 C         139.8209  141.7895  164.0823 C.3     1  UNL1        0.0896
      8 H         138.6957  143.8811  161.8915 H       1  UNL1        0.1233
      9 C         140.4827  142.0024  167.5408 C.ar    1  UNL1       -0.0075
     10 C         140.5248  142.8769  168.7587 C.ar    1  UNL1       -0.0030
     11 C         139.9343  142.3933  170.0501 C.ar    1  UNL1       -0.0003
     12 C         139.3017  141.0352  170.1234 C.ar    1  UNL1       -0.0000
     13 C         139.2596  140.1607  168.9054 C.ar    1  UNL1       -0.0003
     14 C         139.8501  140.6443  167.6141 C.ar    1  UNL1       -0.0030
     15 C         142.5604  142.6217  166.1091 C.3     1  UNL1        0.0499
     16 C         144.5012  141.7878  164.5965 C.ar    1  UNL1        0.1344
     17 C         145.3058  140.6615  164.0186 C.ar    1  UNL1        0.0366
     18 C         144.9743  139.2428  164.3754 C.ar    1  UNL1        0.0031
     19 C         143.8382  138.9504  165.3101 C.ar    1  UNL1       -0.0001
     20 C         143.0336  140.0766  165.8880 C.ar    1  UNL1       -0.0012
     21 C         143.3650  141.4953  165.5312 C.ar    1  UNL1        0.0135
     22 O         144.8326  143.2066  164.2397 O.3     1  UNL1       -0.4795
     23 C         143.2654  145.0975  163.3923 C.3     1  UNL1        0.0472
     24 C         144.1068  143.8867  163.1169 C.3     1  UNL1        0.1661
     25 C         144.2224  143.3559  161.7187 C.3     1  UNL1        0.0472
@<TRIPOS>BOND
     1    23    24    1
     2    24    25    1
     3    24    22    1
     4    22    16    1
     5    16    17   ar
     6    17    18   ar
     7    18    19   ar
     8    19    20   ar
     9    20    21   ar
    10    21    15    1
    11    15     1    1
    12     1     9    1
    13     9    10   ar
    14    10    11   ar
    15    11    12   ar
    16    12    13   ar
    17    13    14   ar
    18     1     2    1
    19     2     3    1
    20     3     4    1
    21     4     5    1
    22     5     6    1
    23     6     7    1
    24    21    16   ar
    25    14     9   ar
    26     7     2    1
    27     5     8    1
