@<TRIPOS>MOLECULE
*****
 59 65 0 0 0
SMALL
GASTEIGER

@<TRIPOS>ATOM
      1 C         142.4304  138.7986  160.8726 C.3     1  UNL1        0.1894
      2 C         142.6398  137.8406  159.7375 C.3     1  UNL1        0.0746
      3 C         141.9654  138.4064  158.5230 C.3     1  UNL1        0.1555
      4 N         141.3391  139.7141  158.9075 N.am    1  UNL1       -0.2678
      5 C         140.5619  140.6203  157.9993 C.2     1  UNL1        0.2440
      6 O         140.3547  140.2438  156.5622 O.2     1  UNL1       -0.2731
      7 C         141.6265  139.9565  160.3596 C.3     1  UNL1        0.1373
      8 C         141.9244  137.7753  157.1628 C.2     1  UNL1        0.2409
      9 O         143.0304  138.0328  156.1829 O.2     1  UNL1       -0.2733
     10 N         140.7773  136.8867  156.7826 N.am    1  UNL1       -0.2985
     11 H         140.0514  136.7177  157.4257 H       1  UNL1        0.1498
     12 C         140.7363  136.2556  155.4224 C.3     1  UNL1        0.1271
     13 C         141.0190  135.2962  154.3046 C.3     1  UNL1        0.0290
     14 C         141.6543  135.0910  155.6478 C.3     1  UNL1        0.0270
     15 C         139.8041  137.2012  154.7246 C.2     1  UNL1        0.2564
     16 O         140.3232  138.1092  153.6494 O.2     1  UNL1       -0.2718
     17 N         138.3528  137.2387  155.1019 N.am    1  UNL1       -0.1875
     18 H         138.0121  136.6427  155.8076 H       1  UNL1        0.1762
     19 S         137.4206  138.1842  154.4041 S.O2    1  UNL1        0.0543
     20 O         137.6293  139.1939  155.4935 O.2     1  UNL1       -0.1545
     21 O         137.2120  137.1744  153.3146 O.2     1  UNL1       -0.1545
     22 C         136.4885  139.1297  153.7062 C.3     1  UNL1        0.1490
     23 C         135.2726  140.0078  153.7279 C.3     1  UNL1        0.0273
     24 C         136.0898  139.8893  152.4757 C.3     1  UNL1        0.0273
     25 C         142.5510  134.3000  156.5536 C.3     1  UNL1        0.0021
     26 C         143.4895  134.2386  157.7221 C.3     1  UNL1        0.0001
     27 C         143.1657  132.9916  156.9539 C.3     1  UNL1        0.0001
     28 O         142.9361  138.6286  162.2745 O.3     1  UNL1       -0.4621
     29 C         140.1240  139.1094  165.7546 C.ar    1  UNL1        0.1579
     30 C         139.9335  137.9791  164.7871 C.ar    1  UNL1        0.1388
     31 N         140.8709  137.8189  163.6270 N.ar    1  UNL1       -0.2069
     32 C         141.9987  138.7889  163.4345 C.ar    1  UNL1        0.2249
     33 C         142.1892  139.9193  164.4020 C.ar    1  UNL1        0.0570
     34 C         143.3169  140.8893  164.2095 C.ar    1  UNL1        0.0161
     35 C         143.5073  142.0196  165.1770 C.ar    1  UNL1        0.0578
     36 CL        144.6352  142.9897  164.9845 Cl      1  UNL1       -0.0822
     37 C         142.5700  142.1799  166.3370 C.ar    1  UNL1        0.0115
     38 C         141.4422  141.2099  166.5296 C.ar    1  UNL1        0.0041
     39 C         141.2518  140.0796  165.5621 C.ar    1  UNL1        0.0401
     40 C         137.8417  138.6060  166.8893 C.3     1  UNL1        0.2525
     41 O         139.1866  139.2697  166.9146 O.3     1  UNL1       -0.4699
     42 C         139.9920  141.9030  158.5282 C.3     1  UNL1        0.1512
     43 C         140.6481  143.2097  158.1934 C.3     1  UNL1        0.0270
     44 C         139.8083  144.4202  157.9119 C.3     1  UNL1        0.0021
     45 C         140.4645  145.7269  157.5770 C.3     1  UNL1        0.0001
     46 C         141.9605  145.8230  157.5237 C.3     1  UNL1        0.0000
     47 C         142.8003  144.6125  157.8052 C.3     1  UNL1        0.0001
     48 C         142.1441  143.3058  158.1401 C.3     1  UNL1        0.0021
     49 N         138.7659  141.8790  159.3920 N.am    1  UNL1       -0.2640
     50 C         138.8274  142.4025  160.7963 C.2     1  UNL1        0.4021
     51 O         140.1151  142.9500  161.3369 O.2     1  UNL1       -0.2264
     52 H         137.9207  141.5197  159.0372 H       1  UNL1        0.1532
     53 O         137.6014  142.3786  161.6602 O.3     1  UNL1       -0.4295
     54 C         137.7235  142.0952  163.1280 C.3     1  UNL1        0.2645
     55 C         137.7130  140.6788  163.6218 C.3     1  UNL1        0.0567
     56 C         137.8561  143.2281  164.1022 C.3     1  UNL1        0.4342
     57 F         137.9886  144.3610  165.0763 F       1  UNL1       -0.1664
     58 F         137.2390  144.1603  163.1020 F       1  UNL1       -0.1664
     59 F         138.4731  142.2959  165.1023 F       1  UNL1       -0.1664
@<TRIPOS>BOND
     1    40    41    1
     2    41    29    1
     3    29    30   ar
     4    30    31   ar
     5    31    32   ar
     6    32    28    1
     7     1    28    1
     8     1     2    1
     9     2     3    1
    10     3     8    1
    11     8     9    2
    12     8    10   am
    13    12    10    1
    14    12    15    1
    15    15    16    2
    16    15    17   am
    17    17    19    1
    18    19    20    2
    19    19    21    2
    20    19    22    1
    21    22    23    1
    22    23    24    1
    23    12    13    1
    24    13    14    1
    25    14    25    1
    26    25    26    1
    27    26    27    1
    28     3     4    1
    29     4     5   am
    30     5     6    2
    31     5    42    1
    32    42    49    1
    33    49    50   am
    34    50    51    2
    35    50    53    1
    36    53    54    1
    37    54    55    1
    38    54    56    1
    39    56    57    1
    40    56    58    1
    41    56    59    1
    42    42    43    1
    43    43    44    1
    44    44    45    1
    45    45    46    1
    46    46    47    1
    47    47    48    1
    48     4     7    1
    49    32    33   ar
    50    33    34   ar
    51    34    35   ar
    52    35    36    1
    53    35    37   ar
    54    37    38   ar
    55    38    39   ar
    56    39    29   ar
    57     7     1    1
    58    39    33   ar
    59    14    12    1
    60    27    25    1
    61    48    43    1
    62    24    22    1
    63    10    11    1
    64    17    18    1
    65    49    52    1
@<TRIPOS>MOLECULE
*****
 59 65 0 0 0
SMALL
GASTEIGER

@<TRIPOS>ATOM
      1 C         142.1159  139.0143  161.0198 C.3     1  UNL1        0.1894
      2 C         142.2365  137.9609  159.9588 C.3     1  UNL1        0.0746
      3 C         141.5764  138.4779  158.7150 C.3     1  UNL1        0.1555
      4 N         141.0479  139.8510  159.0074 N.am    1  UNL1       -0.2678
      5 C         140.3146  140.7370  158.0443 C.2     1  UNL1        0.2440
      6 O         140.0525  140.2677  156.6440 O.2     1  UNL1       -0.2731
      7 C         141.3813  140.1824  160.4318 C.3     1  UNL1        0.1373
      8 C         141.4645  137.7498  157.4084 C.2     1  UNL1        0.2409
      9 O         140.1234  137.2912  156.9178 O.2     1  UNL1       -0.2733
     10 N         142.6939  137.4803  156.5923 N.am    1  UNL1       -0.2985
     11 H         143.5743  137.7813  156.9143 H       1  UNL1        0.1498
     12 C         142.5821  136.7522  155.2857 C.3     1  UNL1        0.1271
     13 C         142.4444  136.5164  153.8108 C.3     1  UNL1        0.0290
     14 C         142.4690  137.9169  154.3473 C.3     1  UNL1        0.0270
     15 C         142.6563  135.3345  155.7703 C.2     1  UNL1        0.2564
     16 O         141.4439  134.4539  155.7013 O.2     1  UNL1       -0.2718
     17 N         143.9428  134.7975  156.3238 N.am    1  UNL1       -0.1875
     18 H         144.7385  135.3754  156.3691 H       1  UNL1        0.1762
     19 S         144.0170  133.3799  156.8084 S.O2    1  UNL1        0.0543
     20 O         143.8641  133.8553  158.2228 O.2     1  UNL1       -0.1545
     21 O         144.1699  132.9044  155.3939 O.2     1  UNL1       -0.1545
     22 C         144.0912  131.9623  157.2929 C.3     1  UNL1        0.1490
     23 C         143.4856  130.5947  157.4059 C.3     1  UNL1        0.0273
     24 C         144.8254  130.8745  158.0194 C.3     1  UNL1        0.0273
     25 C         142.4179  139.3980  154.1154 C.3     1  UNL1        0.0021
     26 C         141.9541  140.5703  153.3026 C.3     1  UNL1        0.0001
     27 C         142.7932  140.7910  154.5263 C.3     1  UNL1        0.0001
     28 O         142.6382  138.9168  162.4225 O.3     1  UNL1       -0.4621
     29 C         139.8043  139.2207  165.9049 C.ar    1  UNL1        0.1579
     30 C         139.6195  138.1416  164.8795 C.ar    1  UNL1        0.1388
     31 N         140.5641  138.0403  163.7187 N.ar    1  UNL1       -0.2069
     32 C         141.6935  139.0181  163.5833 C.ar    1  UNL1        0.2249
     33 C         141.8784  140.0972  164.6087 C.ar    1  UNL1        0.0570
     34 C         143.0078  141.0750  164.4733 C.ar    1  UNL1        0.0161
     35 C         143.1925  142.1541  165.4986 C.ar    1  UNL1        0.0578
     36 CL        144.3220  143.1319  165.3632 Cl      1  UNL1       -0.0822
     37 C         142.2479  142.2554  166.6594 C.ar    1  UNL1        0.0115
     38 C         141.1185  141.2776  166.7948 C.ar    1  UNL1        0.0041
     39 C         140.9337  140.1985  165.7695 C.ar    1  UNL1        0.0401
     40 C         137.6140  138.4868  167.0940 C.3     1  UNL1        0.2525
     41 O         138.8597  139.3220  167.0656 O.3     1  UNL1       -0.4699
     42 C         139.8436  142.0923  158.4817 C.3     1  UNL1        0.1512
     43 C         140.5771  143.3217  158.0341 C.3     1  UNL1        0.0270
     44 C         139.8123  144.5552  157.6552 C.3     1  UNL1        0.0021
     45 C         140.5458  145.7847  157.2076 C.3     1  UNL1        0.0001
     46 C         142.0443  145.7807  157.1389 C.3     1  UNL1        0.0000
     47 C         142.8091  144.5472  157.5177 C.3     1  UNL1        0.0001
     48 C         142.0756  143.3177  157.9653 C.3     1  UNL1        0.0021
     49 N         138.6390  142.2181  159.3666 N.am    1  UNL1       -0.2640
     50 C         138.7797  142.7828  160.7490 C.2     1  UNL1        0.4021
     51 O         140.1250  143.2218  161.2466 O.2     1  UNL1       -0.2264
     52 H         137.7560  141.9300  159.0400 H       1  UNL1        0.1532
     53 O         137.5751  142.9087  161.6341 O.3     1  UNL1       -0.4295
     54 C         137.6511  142.4807  163.0697 C.3     1  UNL1        0.2645
     55 C         137.5977  141.0235  163.4216 C.3     1  UNL1        0.0567
     56 C         137.7806  143.5098  164.1533 C.3     1  UNL1        0.4342
     57 F         137.9101  144.5388  165.2369 F       1  UNL1       -0.1664
     58 F         138.3005  142.4590  165.0891 F       1  UNL1       -0.1664
     59 F         137.2608  144.5605  163.2174 F       1  UNL1       -0.1664
@<TRIPOS>BOND
     1    40    41    1
     2    41    29    1
     3    29    30   ar
     4    30    31   ar
     5    31    32   ar
     6    32    28    1
     7     1    28    1
     8     1     2    1
     9     2     3    1
    10     3     8    1
    11     8     9    2
    12     8    10   am
    13    12    10    1
    14    12    15    1
    15    15    16    2
    16    15    17   am
    17    17    19    1
    18    19    20    2
    19    19    21    2
    20    19    22    1
    21    22    23    1
    22    23    24    1
    23    12    13    1
    24    13    14    1
    25    14    25    1
    26    25    26    1
    27    26    27    1
    28     3     4    1
    29     4     5   am
    30     5     6    2
    31     5    42    1
    32    42    49    1
    33    49    50   am
    34    50    51    2
    35    50    53    1
    36    53    54    1
    37    54    55    1
    38    54    56    1
    39    56    57    1
    40    56    58    1
    41    56    59    1
    42    42    43    1
    43    43    44    1
    44    44    45    1
    45    45    46    1
    46    46    47    1
    47    47    48    1
    48     4     7    1
    49    32    33   ar
    50    33    34   ar
    51    34    35   ar
    52    35    36    1
    53    35    37   ar
    54    37    38   ar
    55    38    39   ar
    56    39    29   ar
    57     7     1    1
    58    39    33   ar
    59    14    12    1
    60    27    25    1
    61    48    43    1
    62    24    22    1
    63    10    11    1
    64    17    18    1
    65    49    52    1
@<TRIPOS>MOLECULE
*****
 59 65 0 0 0
SMALL
GASTEIGER

@<TRIPOS>ATOM
      1 C         142.6117  138.2336  160.4231 C.3     1  UNL1        0.1894
      2 C         142.7396  137.3654  159.2066 C.3     1  UNL1        0.0746
      3 C         141.9797  138.0174  158.0897 C.3     1  UNL1        0.1555
      4 N         141.3822  139.2887  158.6160 N.am    1  UNL1       -0.2678
      5 C         140.5416  140.2564  157.8369 C.2     1  UNL1        0.2440
      6 O         140.2320  139.9884  156.3939 O.2     1  UNL1       -0.2731
      7 C         141.7728  139.4223  160.0580 C.3     1  UNL1        0.1373
      8 C         141.8415  137.4907  156.6921 C.2     1  UNL1        0.2409
      9 O         142.9018  137.7830  155.6722 O.2     1  UNL1       -0.2733
     10 N         140.6430  136.6715  156.3143 N.am    1  UNL1       -0.2985
     11 H         139.9471  136.4796  156.9837 H       1  UNL1        0.1498
     12 C         140.5048  136.1448  154.9167 C.3     1  UNL1        0.1271
     13 C         140.6970  135.2667  153.7159 C.3     1  UNL1        0.0290
     14 C         141.4080  134.9500  154.9981 C.3     1  UNL1        0.0270
     15 C         139.5536  137.1567  154.3498 C.2     1  UNL1        0.2564
     16 O         140.0064  138.0844  153.2615 O.2     1  UNL1       -0.2718
     17 N         138.1497  137.2409  154.8713 N.am    1  UNL1       -0.1875
     18 H         137.8526  136.6321  155.5856 H       1  UNL1        0.1762
     19 S         137.1985  138.2528  154.3044 S.O2    1  UNL1        0.0543
     20 O         136.9044  137.3332  153.1565 O.2     1  UNL1       -0.1545
     21 O         137.4926  139.1724  155.4525 O.2     1  UNL1       -0.1545
     22 C         136.2474  139.2646  153.7376 C.3     1  UNL1        0.1490
     23 C         135.7813  140.1084  152.5884 C.3     1  UNL1        0.0273
     24 C         135.0659  140.1735  153.9051 C.3     1  UNL1        0.0273
     25 C         142.3401  134.0774  155.7855 C.3     1  UNL1        0.0021
     26 C         142.6657  132.7501  156.4036 C.3     1  UNL1        0.0001
     27 C         143.6286  133.8933  156.5311 C.3     1  UNL1        0.0001
     28 O         143.2166  137.9611  161.7683 O.3     1  UNL1       -0.4621
     29 C         143.7025  141.3082  164.7367 C.ar    1  UNL1        0.1579
     30 C         144.6829  141.1551  163.6119 C.ar    1  UNL1        0.1388
     31 N         144.5209  140.0394  162.6224 N.ar    1  UNL1       -0.2069
     32 C         143.3786  139.0768  162.7578 C.ar    1  UNL1        0.2249
     33 C         142.3981  139.2299  163.8827 C.ar    1  UNL1        0.0570
     34 C         141.2557  138.2673  164.0180 C.ar    1  UNL1        0.0161
     35 C         140.2753  138.4204  165.1429 C.ar    1  UNL1        0.0578
     36 CL        139.1328  137.4578  165.2783 Cl      1  UNL1       -0.0822
     37 C         140.4372  139.5361  166.1323 C.ar    1  UNL1        0.0115
     38 C         141.5796  140.4987  165.9970 C.ar    1  UNL1        0.0041
     39 C         142.5600  140.3456  164.8721 C.ar    1  UNL1        0.0401
     40 C         144.5798  143.6809  165.3286 C.3     1  UNL1        0.2525
     41 O         143.8644  142.4238  165.7262 O.3     1  UNL1       -0.4699
     42 C         140.0106  141.4922  158.5008 C.3     1  UNL1        0.1512
     43 C         140.6908  142.8114  158.2839 C.3     1  UNL1        0.0270
     44 C         139.8770  144.0675  158.1843 C.3     1  UNL1        0.0021
     45 C         140.5573  145.3867  157.9674 C.3     1  UNL1        0.0001
     46 C         142.0513  145.4498  157.8500 C.3     1  UNL1        0.0000
     47 C         142.8651  144.1937  157.9496 C.3     1  UNL1        0.0001
     48 C         142.1849  142.8745  158.1665 C.3     1  UNL1        0.0021
     49 N         138.7994  141.4088  159.3817 N.am    1  UNL1       -0.2640
     50 C         138.8956  141.7959  160.8277 C.2     1  UNL1        0.4021
     51 O         140.2030  142.2664  161.3928 O.2     1  UNL1       -0.2264
     52 H         137.9413  141.1000  159.0108 H       1  UNL1        0.1532
     53 O         137.6844  141.7126  161.7087 O.3     1  UNL1       -0.4295
     54 C         137.7009  142.3458  163.0683 C.3     1  UNL1        0.2645
     55 C         137.6502  143.8390  163.2009 C.3     1  UNL1        0.0567
     56 C         137.7680  141.4857  164.2955 C.3     1  UNL1        0.4342
     57 F         137.8351  140.6257  165.5225 F       1  UNL1       -0.1664
     58 F         138.0921  142.6934  165.1241 F       1  UNL1       -0.1664
     59 F         137.4438  140.2782  163.4668 F       1  UNL1       -0.1664
@<TRIPOS>BOND
     1    40    41    1
     2    41    29    1
     3    29    30   ar
     4    30    31   ar
     5    31    32   ar
     6    32    28    1
     7     1    28    1
     8     1     2    1
     9     2     3    1
    10     3     8    1
    11     8     9    2
    12     8    10   am
    13    12    10    1
    14    12    15    1
    15    15    16    2
    16    15    17   am
    17    17    19    1
    18    19    20    2
    19    19    21    2
    20    19    22    1
    21    22    23    1
    22    23    24    1
    23    12    13    1
    24    13    14    1
    25    14    25    1
    26    25    26    1
    27    26    27    1
    28     3     4    1
    29     4     5   am
    30     5     6    2
    31     5    42    1
    32    42    49    1
    33    49    50   am
    34    50    51    2
    35    50    53    1
    36    53    54    1
    37    54    55    1
    38    54    56    1
    39    56    57    1
    40    56    58    1
    41    56    59    1
    42    42    43    1
    43    43    44    1
    44    44    45    1
    45    45    46    1
    46    46    47    1
    47    47    48    1
    48     4     7    1
    49    32    33   ar
    50    33    34   ar
    51    34    35   ar
    52    35    36    1
    53    35    37   ar
    54    37    38   ar
    55    38    39   ar
    56    39    29   ar
    57     7     1    1
    58    39    33   ar
    59    14    12    1
    60    27    25    1
    61    48    43    1
    62    24    22    1
    63    10    11    1
    64    17    18    1
    65    49    52    1
@<TRIPOS>MOLECULE
*****
 59 65 0 0 0
SMALL
GASTEIGER

@<TRIPOS>ATOM
      1 C         142.9088  138.2500  160.9450 C.3     1  UNL1        0.1894
      2 C         143.1003  137.2930  159.8059 C.3     1  UNL1        0.0746
      3 C         142.4622  137.8899  158.5867 C.3     1  UNL1        0.1555
      4 N         141.8764  139.2159  158.9722 N.am    1  UNL1       -0.2678
      5 C         141.1432  140.1545  158.0603 C.2     1  UNL1        0.2440
      6 O         140.9425  139.7950  156.6180 O.2     1  UNL1       -0.2731
      7 C         142.1524  139.4384  160.4297 C.3     1  UNL1        0.1373
      8 C         142.4177  137.2697  157.2216 C.2     1  UNL1        0.2409
      9 O         143.5947  137.3983  156.3007 O.2     1  UNL1       -0.2733
     10 N         141.1962  136.5210  156.7774 N.am    1  UNL1       -0.2985
     11 H         140.4237  136.4366  157.3818 H       1  UNL1        0.1498
     12 C         141.1517  135.9008  155.4124 C.3     1  UNL1        0.1271
     13 C         141.4093  134.9352  154.2938 C.3     1  UNL1        0.0290
     14 C         142.0060  134.6906  155.6481 C.3     1  UNL1        0.0270
     15 C         140.2820  136.8957  154.7025 C.2     1  UNL1        0.2564
     16 O         140.8845  137.8444  153.7091 O.2     1  UNL1       -0.2718
     17 N         138.8097  136.9419  154.9861 N.am    1  UNL1       -0.1875
     18 H         138.4143  136.3192  155.6381 H       1  UNL1        0.1762
     19 S         137.9401  137.9367  154.2762 S.O2    1  UNL1        0.0543
     20 O         138.0372  138.8614  155.4532 O.2     1  UNL1       -0.1545
     21 O         137.8429  137.0119  153.0992 O.2     1  UNL1       -0.1545
     22 C         137.0704  138.9315  153.5664 C.3     1  UNL1        0.1490
     23 C         136.8583  139.9042  152.4445 C.3     1  UNL1        0.0273
     24 C         135.7760  139.6819  153.4590 C.3     1  UNL1        0.0273
     25 C         142.8437  133.8507  156.5662 C.3     1  UNL1        0.0021
     26 C         143.3111  132.5026  157.0287 C.3     1  UNL1        0.0001
     27 C         143.8272  133.7441  157.6937 C.3     1  UNL1        0.0001
     28 O         143.3894  138.0532  162.3522 O.3     1  UNL1       -0.4621
     29 C         140.6656  138.9848  165.8110 C.ar    1  UNL1        0.1579
     30 C         140.4556  137.7367  165.0059 C.ar    1  UNL1        0.1388
     31 N         141.3635  137.4262  163.8530 N.ar    1  UNL1       -0.2069
     32 C         142.4815  138.3638  163.5051 C.ar    1  UNL1        0.2249
     33 C         142.6916  139.6119  164.3102 C.ar    1  UNL1        0.0570
     34 C         143.8096  140.5494  163.9623 C.ar    1  UNL1        0.0161
     35 C         144.0196  141.7975  164.7673 C.ar    1  UNL1        0.0578
     36 CL        145.1377  142.7351  164.4195 Cl      1  UNL1       -0.0822
     37 C         143.1117  142.1080  165.9203 C.ar    1  UNL1        0.0115
     38 C         141.9937  141.1705  166.2682 C.ar    1  UNL1        0.0041
     39 C         141.7837  139.9224  165.4631 C.ar    1  UNL1        0.0401
     40 C         138.2881  139.0143  166.8581 C.3     1  UNL1        0.2525
     41 O         139.7577  139.2953  166.9639 O.3     1  UNL1       -0.4699
     42 C         140.6109  141.4527  158.5908 C.3     1  UNL1        0.1512
     43 C         140.9730  142.7431  157.9172 C.3     1  UNL1        0.0270
     44 C         142.1955  143.4973  158.3492 C.3     1  UNL1        0.0021
     45 C         142.5576  144.7877  157.6756 C.3     1  UNL1        0.0001
     46 C         141.6973  145.3239  156.5701 C.3     1  UNL1        0.0000
     47 C         140.4749  144.5697  156.1381 C.3     1  UNL1        0.0001
     48 C         140.1127  143.2792  156.8116 C.3     1  UNL1        0.0021
     49 N         139.7164  141.4604  159.7949 N.am    1  UNL1       -0.2640
     50 C         138.2664  141.1031  159.6543 C.2     1  UNL1        0.4021
     51 O         137.7109  140.7381  158.3095 O.2     1  UNL1       -0.2264
     52 H         140.0810  141.6999  160.6775 H       1  UNL1        0.1532
     53 O         137.3718  141.1107  160.8583 O.3     1  UNL1       -0.4295
     54 C         137.7796  140.3755  162.1004 C.3     1  UNL1        0.2645
     55 C         137.5763  141.0062  163.4461 C.3     1  UNL1        0.0567
     56 C         138.3907  139.0095  161.9970 C.3     1  UNL1        0.4342
     57 F         139.0018  137.6436  161.8935 F       1  UNL1       -0.1664
     58 F         139.7068  139.5635  162.4564 F       1  UNL1       -0.1664
     59 F         137.0746  138.4556  161.5375 F       1  UNL1       -0.1664
@<TRIPOS>BOND
     1    40    41    1
     2    41    29    1
     3    29    30   ar
     4    30    31   ar
     5    31    32   ar
     6    32    28    1
     7     1    28    1
     8     1     2    1
     9     2     3    1
    10     3     8    1
    11     8     9    2
    12     8    10   am
    13    12    10    1
    14    12    15    1
    15    15    16    2
    16    15    17   am
    17    17    19    1
    18    19    20    2
    19    19    21    2
    20    19    22    1
    21    22    23    1
    22    23    24    1
    23    12    13    1
    24    13    14    1
    25    14    25    1
    26    25    26    1
    27    26    27    1
    28     3     4    1
    29     4     5   am
    30     5     6    2
    31     5    42    1
    32    42    49    1
    33    49    50   am
    34    50    51    2
    35    50    53    1
    36    53    54    1
    37    54    55    1
    38    54    56    1
    39    56    57    1
    40    56    58    1
    41    56    59    1
    42    42    43    1
    43    43    44    1
    44    44    45    1
    45    45    46    1
    46    46    47    1
    47    47    48    1
    48     4     7    1
    49    32    33   ar
    50    33    34   ar
    51    34    35   ar
    52    35    36    1
    53    35    37   ar
    54    37    38   ar
    55    38    39   ar
    56    39    29   ar
    57     7     1    1
    58    39    33   ar
    59    14    12    1
    60    27    25    1
    61    48    43    1
    62    24    22    1
    63    10    11    1
    64    17    18    1
    65    49    52    1
@<TRIPOS>MOLECULE
*****
 59 65 0 0 0
SMALL
GASTEIGER

@<TRIPOS>ATOM
      1 C         139.5859  143.2730  159.4316 C.3     1  UNL1        0.1894
      2 C         139.5534  143.8811  158.0607 C.3     1  UNL1        0.0746
      3 C         140.7285  143.3540  157.2918 C.3     1  UNL1        0.1555
      4 N         141.4873  142.4201  158.1875 N.am    1  UNL1       -0.2678
      5 C         142.7335  141.6683  157.8245 C.2     1  UNL1        0.2440
      6 O         143.3285  141.8190  156.4558 O.2     1  UNL1       -0.2731
      7 C         140.7811  142.3701  159.5099 C.3     1  UNL1        0.1373
      8 C         141.0827  143.7000  155.8759 C.2     1  UNL1        0.2409
      9 O         140.3304  143.0728  154.7399 O.2     1  UNL1       -0.2733
     10 N         142.1893  144.6732  155.5960 N.am    1  UNL1       -0.2985
     11 H         142.6831  145.0848  156.3415 H       1  UNL1        0.1498
     12 C         142.5435  145.0192  154.1800 C.3     1  UNL1        0.1271
     13 C         142.5045  145.6976  152.8429 C.3     1  UNL1        0.0290
     14 C         141.5344  146.0968  153.9150 C.3     1  UNL1        0.0270
     15 C         143.6757  144.0616  153.9533 C.2     1  UNL1        0.2564
     16 O         143.4012  142.6912  153.4088 O.2     1  UNL1       -0.2718
     17 N         145.0823  144.4746  154.2711 N.am    1  UNL1       -0.1875
     18 H         145.2624  145.3741  154.6285 H       1  UNL1        0.1762
     19 S         146.2144  143.5171  154.0444 S.O2    1  UNL1        0.0543
     20 O         146.0151  142.9555  155.4210 O.2     1  UNL1       -0.1545
     21 O         146.4137  144.0787  152.6678 O.2     1  UNL1       -0.1545
     22 C         147.3465  142.5596  153.8177 C.3     1  UNL1        0.1490
     23 C         148.7110  142.0524  154.1791 C.3     1  UNL1        0.0273
     24 C         147.9428  141.4082  153.0635 C.3     1  UNL1        0.0273
     25 C         140.3916  146.9495  154.3810 C.3     1  UNL1        0.0021
     26 C         139.6194  148.2339  154.3186 C.3     1  UNL1        0.0001
     27 C         139.1845  147.1418  155.2505 C.3     1  UNL1        0.0001
     28 O         138.5968  143.5238  160.5310 O.3     1  UNL1       -0.4621
     29 C         138.4726  140.7995  164.1104 C.ar    1  UNL1        0.1579
     30 C         137.5299  140.5766  162.9652 C.ar    1  UNL1        0.1388
     31 N         137.5713  141.4847  161.7720 N.ar    1  UNL1       -0.2069
     32 C         138.5554  142.6157  161.7241 C.ar    1  UNL1        0.2249
     33 C         139.4982  142.8387  162.8694 C.ar    1  UNL1        0.0570
     34 C         140.4822  143.9697  162.8215 C.ar    1  UNL1        0.0161
     35 C         141.4249  144.1926  163.9668 C.ar    1  UNL1        0.0578
     36 CL        142.4091  145.3236  163.9189 Cl      1  UNL1       -0.0822
     37 C         141.3835  143.2844  165.1599 C.ar    1  UNL1        0.0115
     38 C         140.3994  142.1534  165.2078 C.ar    1  UNL1        0.0041
     39 C         139.4568  141.9305  164.0626 C.ar    1  UNL1        0.0401
     40 C         138.9813  138.4993  165.2061 C.3     1  UNL1        0.2525
     41 O         138.4312  139.8913  165.3036 O.3     1  UNL1       -0.4699
     42 C         143.3847  140.7658  158.8301 C.3     1  UNL1        0.1512
     43 C         143.6903  141.2747  160.2077 C.3     1  UNL1        0.0270
     44 C         144.3674  142.6015  160.3840 C.3     1  UNL1        0.0021
     45 C         144.6730  143.1104  161.7616 C.3     1  UNL1        0.0001
     46 C         144.3014  142.2926  162.9628 C.3     1  UNL1        0.0000
     47 C         143.6242  140.9658  162.7865 C.3     1  UNL1        0.0001
     48 C         143.3187  140.4569  161.4089 C.3     1  UNL1        0.0021
     49 N         143.7304  139.3544  158.4582 N.am    1  UNL1       -0.2640
     50 C         142.6949  138.2748  158.5682 C.2     1  UNL1        0.4021
     51 O         141.3137  138.6066  159.0501 O.2     1  UNL1       -0.2264
     52 H         144.6370  139.1366  158.1419 H       1  UNL1        0.1532
     53 O         143.0405  136.8633  158.1963 O.3     1  UNL1       -0.4295
     54 C         142.7666  136.3648  156.8083 C.3     1  UNL1        0.2645
     55 C         141.7412  137.0496  155.9542 C.3     1  UNL1        0.0567
     56 C         143.5182  135.1815  156.2744 C.3     1  UNL1        0.4342
     57 F         144.2698  133.9983  155.7406 F       1  UNL1       -0.1664
     58 F         144.4952  136.1033  155.6067 F       1  UNL1       -0.1664
     59 F         142.5412  134.2598  156.9423 F       1  UNL1       -0.1664
@<TRIPOS>BOND
     1    40    41    1
     2    41    29    1
     3    29    30   ar
     4    30    31   ar
     5    31    32   ar
     6    32    28    1
     7     1    28    1
     8     1     2    1
     9     2     3    1
    10     3     8    1
    11     8     9    2
    12     8    10   am
    13    12    10    1
    14    12    15    1
    15    15    16    2
    16    15    17   am
    17    17    19    1
    18    19    20    2
    19    19    21    2
    20    19    22    1
    21    22    23    1
    22    23    24    1
    23    12    13    1
    24    13    14    1
    25    14    25    1
    26    25    26    1
    27    26    27    1
    28     3     4    1
    29     4     5   am
    30     5     6    2
    31     5    42    1
    32    42    49    1
    33    49    50   am
    34    50    51    2
    35    50    53    1
    36    53    54    1
    37    54    55    1
    38    54    56    1
    39    56    57    1
    40    56    58    1
    41    56    59    1
    42    42    43    1
    43    43    44    1
    44    44    45    1
    45    45    46    1
    46    46    47    1
    47    47    48    1
    48     4     7    1
    49    32    33   ar
    50    33    34   ar
    51    34    35   ar
    52    35    36    1
    53    35    37   ar
    54    37    38   ar
    55    38    39   ar
    56    39    29   ar
    57     7     1    1
    58    39    33   ar
    59    14    12    1
    60    27    25    1
    61    48    43    1
    62    24    22    1
    63    10    11    1
    64    17    18    1
    65    49    52    1
@<TRIPOS>MOLECULE
*****
 59 65 0 0 0
SMALL
GASTEIGER

@<TRIPOS>ATOM
      1 C         142.2652  143.5401  160.1000 C.3     1  UNL1        0.1894
      2 C         141.6352  144.1543  158.8851 C.3     1  UNL1        0.0746
      3 C         141.0476  143.0491  158.0586 C.3     1  UNL1        0.1555
      4 N         141.3145  141.7517  158.7627 N.am    1  UNL1       -0.2678
      5 C         140.9014  140.3899  158.2884 C.2     1  UNL1        0.2440
      6 O         140.1493  140.2409  156.9992 O.2     1  UNL1       -0.2731
      7 C         142.0670  142.0552  160.0243 C.3     1  UNL1        0.1373
      8 C         140.3208  143.2124  156.7567 C.2     1  UNL1        0.2409
      9 O         141.0874  143.2371  155.4677 O.2     1  UNL1       -0.2733
     10 N         138.8272  143.3510  156.7438 N.am    1  UNL1       -0.2985
     11 H         138.3240  143.3348  157.5898 H       1  UNL1        0.1498
     12 C         138.1004  143.5143  155.4419 C.3     1  UNL1        0.1271
     13 C         137.5134  144.1716  154.2281 C.3     1  UNL1        0.0290
     14 C         138.2506  144.9935  155.2435 C.3     1  UNL1        0.0270
     15 C         137.6977  142.0918  155.1881 C.2     1  UNL1        0.2564
     16 O         137.0456  141.2914  156.2763 O.2     1  UNL1       -0.2718
     17 N         137.9472  141.4697  153.8462 N.am    1  UNL1       -0.1875
     18 H         138.3752  141.9950  153.1320 H       1  UNL1        0.1762
     19 S         137.5445  140.0473  153.5924 S.O2    1  UNL1        0.0543
     20 O         136.1715  140.5060  153.1997 O.2     1  UNL1       -0.1545
     21 O         138.9176  139.5885  153.9852 O.2     1  UNL1       -0.1545
     22 C         137.1418  138.6248  153.3387 C.3     1  UNL1        0.1490
     23 C         136.9861  137.4669  152.3981 C.3     1  UNL1        0.0273
     24 C         136.6001  137.3189  153.8400 C.3     1  UNL1        0.0273
     25 C         138.7630  146.3221  155.7152 C.3     1  UNL1        0.0021
     26 C         138.8503  147.8111  155.5573 C.3     1  UNL1        0.0001
     27 C         139.5632  147.1340  156.6902 C.3     1  UNL1        0.0001
     28 O         142.9697  144.2807  161.1977 O.3     1  UNL1       -0.4621
     29 C         143.0837  142.5654  165.3564 C.ar    1  UNL1        0.1579
     30 C         144.3295  142.5911  164.5213 C.ar    1  UNL1        0.1388
     31 N         144.2915  143.1629  163.1351 N.ar    1  UNL1       -0.2069
     32 C         143.0077  143.7089  162.5839 C.ar    1  UNL1        0.2249
     33 C         141.7619  143.6832  163.4190 C.ar    1  UNL1        0.0570
     34 C         140.4781  144.2293  162.8679 C.ar    1  UNL1        0.0161
     35 C         139.2324  144.2035  163.7030 C.ar    1  UNL1        0.0578
     36 CL        137.9486  144.7496  163.1519 Cl      1  UNL1       -0.0822
     37 C         139.2704  143.6317  165.0892 C.ar    1  UNL1        0.0115
     38 C         140.5542  143.0857  165.6403 C.ar    1  UNL1        0.0041
     39 C         141.7999  143.1114  164.8052 C.ar    1  UNL1        0.0401
     40 C         142.5941  140.6131  166.9992 C.3     1  UNL1        0.2525
     41 O         143.1217  141.9936  166.7426 O.3     1  UNL1       -0.4699
     42 C         141.2405  139.1771  159.1034 C.3     1  UNL1        0.1512
     43 C         140.3831  138.7962  160.2738 C.3     1  UNL1        0.0270
     44 C         138.9080  139.0663  160.2422 C.3     1  UNL1        0.0021
     45 C         138.0506  138.6854  161.4126 C.3     1  UNL1        0.0001
     46 C         138.6683  138.0344  162.6146 C.3     1  UNL1        0.0000
     47 C         140.1435  137.7643  162.6461 C.3     1  UNL1        0.0001
     48 C         141.0008  138.1452  161.4757 C.3     1  UNL1        0.0021
     49 N         142.4370  138.3452  158.7479 N.am    1  UNL1       -0.2640
     50 C         142.3354  137.3077  157.6693 C.2     1  UNL1        0.4021
     51 O         141.0373  137.1022  156.9462 O.2     1  UNL1       -0.2264
     52 H         143.2889  138.4801  159.2225 H       1  UNL1        0.1532
     53 O         143.5318  136.4758  157.3137 O.3     1  UNL1       -0.4295
     54 C         143.3468  135.0933  156.7619 C.3     1  UNL1        0.2645
     55 C         143.4414  133.9040  157.6711 C.3     1  UNL1        0.0567
     56 C         143.0672  134.9001  155.3008 C.3     1  UNL1        0.4342
     57 F         142.7877  134.7069  153.8399 F       1  UNL1       -0.1664
     58 F         144.2155  135.8037  154.9616 F       1  UNL1       -0.1664
     59 F         141.9190  133.9965  155.6402 F       1  UNL1       -0.1664
@<TRIPOS>BOND
     1    40    41    1
     2    41    29    1
     3    29    30   ar
     4    30    31   ar
     5    31    32   ar
     6    32    28    1
     7     1    28    1
     8     1     2    1
     9     2     3    1
    10     3     8    1
    11     8     9    2
    12     8    10   am
    13    12    10    1
    14    12    15    1
    15    15    16    2
    16    15    17   am
    17    17    19    1
    18    19    20    2
    19    19    21    2
    20    19    22    1
    21    22    23    1
    22    23    24    1
    23    12    13    1
    24    13    14    1
    25    14    25    1
    26    25    26    1
    27    26    27    1
    28     3     4    1
    29     4     5   am
    30     5     6    2
    31     5    42    1
    32    42    49    1
    33    49    50   am
    34    50    51    2
    35    50    53    1
    36    53    54    1
    37    54    55    1
    38    54    56    1
    39    56    57    1
    40    56    58    1
    41    56    59    1
    42    42    43    1
    43    43    44    1
    44    44    45    1
    45    45    46    1
    46    46    47    1
    47    47    48    1
    48     4     7    1
    49    32    33   ar
    50    33    34   ar
    51    34    35   ar
    52    35    36    1
    53    35    37   ar
    54    37    38   ar
    55    38    39   ar
    56    39    29   ar
    57     7     1    1
    58    39    33   ar
    59    14    12    1
    60    27    25    1
    61    48    43    1
    62    24    22    1
    63    10    11    1
    64    17    18    1
    65    49    52    1
@<TRIPOS>MOLECULE
*****
 59 65 0 0 0
SMALL
GASTEIGER

@<TRIPOS>ATOM
      1 C         143.0283  140.3755  161.2818 C.3     1  UNL1        0.1894
      2 C         143.2186  139.4017  160.1569 C.3     1  UNL1        0.0746
      3 C         142.1196  139.6238  159.1605 C.3     1  UNL1        0.1555
      4 N         141.2500  140.7349  159.6697 N.am    1  UNL1       -0.2678
      5 C         140.0325  141.2850  158.9875 C.2     1  UNL1        0.2440
      6 O         139.5887  140.7167  157.6723 O.2     1  UNL1       -0.2731
      7 C         141.8116  141.1995  160.9807 C.3     1  UNL1        0.1373
      8 C         141.9245  138.8676  157.8798 C.2     1  UNL1        0.2409
      9 O         140.8594  137.8158  157.7848 O.2     1  UNL1       -0.2733
     10 N         142.7944  139.1634  156.6942 N.am    1  UNL1       -0.2985
     11 H         143.4935  139.8538  156.7566 H       1  UNL1        0.1498
     12 C         142.5993  138.4072  155.4135 C.3     1  UNL1        0.1271
     13 C         142.1427  138.0874  154.0210 C.3     1  UNL1        0.0290
     14 C         141.7786  139.4013  154.6465 C.3     1  UNL1        0.0270
     15 C         143.3522  137.1504  155.7358 C.2     1  UNL1        0.2564
     16 O         144.8500  137.1327  155.6580 O.2     1  UNL1       -0.2718
     17 N         142.6072  135.9115  156.1357 N.am    1  UNL1       -0.1875
     18 H         141.6241  135.9231  156.1868 H       1  UNL1        0.1762
     19 S         143.3600  134.6548  156.4579 S.O2    1  UNL1        0.0543
     20 O         143.3470  134.2749  155.0069 O.2     1  UNL1       -0.1545
     21 O         143.3731  135.0347  157.9090 O.2     1  UNL1       -0.1545
     22 C         144.1129  133.3981  156.7801 C.3     1  UNL1        0.1490
     23 C         144.6837  132.0793  156.3502 C.3     1  UNL1        0.0273
     24 C         144.8462  132.5403  157.7683 C.3     1  UNL1        0.0273
     25 C         141.0946  140.7338  154.5649 C.3     1  UNL1        0.0021
     26 C         141.1078  142.2166  154.7907 C.3     1  UNL1        0.0001
     27 C         139.8969  141.5589  154.1979 C.3     1  UNL1        0.0001
     28 O         143.9013  140.5029  162.4949 O.3     1  UNL1       -0.4621
     29 C         142.2397  139.5681  166.5711 C.ar    1  UNL1        0.1579
     30 C         143.0989  138.5631  165.8629 C.ar    1  UNL1        0.1388
     31 N         143.6528  138.8747  164.5041 N.ar    1  UNL1       -0.2069
     32 C         143.3474  140.1913  163.8536 C.ar    1  UNL1        0.2249
     33 C         142.4882  141.1964  164.5619 C.ar    1  UNL1        0.0570
     34 C         142.1829  142.5131  163.9113 C.ar    1  UNL1        0.0161
     35 C         141.3237  143.5181  164.6196 C.ar    1  UNL1        0.0578
     36 CL        141.0183  144.8348  163.9691 Cl      1  UNL1       -0.0822
     37 C         140.7698  143.2065  165.9783 C.ar    1  UNL1        0.0115
     38 C         141.0751  141.8899  166.6288 C.ar    1  UNL1        0.0041
     39 C         141.9343  140.8848  165.9206 C.ar    1  UNL1        0.0401
     40 C         142.5098  139.5225  169.1547 C.3     1  UNL1        0.2525
     41 O         141.6858  139.2565  167.9298 O.3     1  UNL1       -0.4699
     42 C         139.2590  142.4033  159.6207 C.3     1  UNL1        0.1512
     43 C         138.6286  142.2104  160.9681 C.3     1  UNL1        0.0270
     44 C         138.1432  140.8527  161.3816 C.3     1  UNL1        0.0021
     45 C         137.5128  140.6598  162.7290 C.3     1  UNL1        0.0001
     46 C         137.3679  141.8246  163.6629 C.3     1  UNL1        0.0000
     47 C         137.8532  143.1823  163.2494 C.3     1  UNL1        0.0001
     48 C         138.4836  143.3752  161.9020 C.3     1  UNL1        0.0021
     49 N         139.1157  143.7145  158.9064 N.am    1  UNL1       -0.2640
     50 C         140.2139  144.7334  158.9818 C.2     1  UNL1        0.4021
     51 O         141.4554  144.4411  159.7714 O.2     1  UNL1       -0.2264
     52 H         138.3010  143.9064  158.3882 H       1  UNL1        0.1532
     53 O         140.0709  146.0447  158.2676 O.3     1  UNL1       -0.4295
     54 C         140.4297  146.1508  156.8150 C.3     1  UNL1        0.2645
     55 C         141.7354  145.6003  156.3230 C.3     1  UNL1        0.0567
     56 C         139.4829  146.8073  155.8545 C.3     1  UNL1        0.4342
     57 F         138.5361  147.4637  154.8941 F       1  UNL1       -0.1664
     58 F         138.9813  147.6943  156.9553 F       1  UNL1       -0.1664
     59 F         139.9846  145.9202  154.7539 F       1  UNL1       -0.1664
@<TRIPOS>BOND
     1    40    41    1
     2    41    29    1
     3    29    30   ar
     4    30    31   ar
     5    31    32   ar
     6    32    28    1
     7     1    28    1
     8     1     2    1
     9     2     3    1
    10     3     8    1
    11     8     9    2
    12     8    10   am
    13    12    10    1
    14    12    15    1
    15    15    16    2
    16    15    17   am
    17    17    19    1
    18    19    20    2
    19    19    21    2
    20    19    22    1
    21    22    23    1
    22    23    24    1
    23    12    13    1
    24    13    14    1
    25    14    25    1
    26    25    26    1
    27    26    27    1
    28     3     4    1
    29     4     5   am
    30     5     6    2
    31     5    42    1
    32    42    49    1
    33    49    50   am
    34    50    51    2
    35    50    53    1
    36    53    54    1
    37    54    55    1
    38    54    56    1
    39    56    57    1
    40    56    58    1
    41    56    59    1
    42    42    43    1
    43    43    44    1
    44    44    45    1
    45    45    46    1
    46    46    47    1
    47    47    48    1
    48     4     7    1
    49    32    33   ar
    50    33    34   ar
    51    34    35   ar
    52    35    36    1
    53    35    37   ar
    54    37    38   ar
    55    38    39   ar
    56    39    29   ar
    57     7     1    1
    58    39    33   ar
    59    14    12    1
    60    27    25    1
    61    48    43    1
    62    24    22    1
    63    10    11    1
    64    17    18    1
    65    49    52    1
@<TRIPOS>MOLECULE
*****
 59 65 0 0 0
SMALL
GASTEIGER

@<TRIPOS>ATOM
      1 C         142.1370  143.4810  160.3150 C.3     1  UNL1        0.1894
      2 C         141.2785  144.0969  159.2503 C.3     1  UNL1        0.0746
      3 C         140.6658  142.9867  158.4490 C.3     1  UNL1        0.1555
      4 N         141.1457  141.6846  159.0186 N.am    1  UNL1       -0.2678
      5 C         140.7804  140.3171  158.5221 C.2     1  UNL1        0.2440
      6 O         139.8543  140.1667  157.3517 O.2     1  UNL1       -0.2731
      7 C         142.0549  141.9901  160.1718 C.3     1  UNL1        0.1373
      8 C         139.7365  143.1499  157.2830 C.2     1  UNL1        0.2409
      9 O         138.2657  142.9128  157.4572 O.2     1  UNL1       -0.2733
     10 N         140.2780  143.5502  155.9426 N.am    1  UNL1       -0.2985
     11 H         141.2434  143.7058  155.8282 H       1  UNL1        0.1498
     12 C         139.3487  143.7133  154.7765 C.3     1  UNL1        0.1271
     13 C         138.5903  143.3924  153.5228 C.3     1  UNL1        0.0290
     14 C         139.5183  142.3759  154.1191 C.3     1  UNL1        0.0270
     15 C         138.8562  145.1076  155.0291 C.2     1  UNL1        0.2564
     16 O         137.3854  145.4004  154.9987 O.2     1  UNL1       -0.2718
     17 N         139.8346  146.2088  155.3119 N.am    1  UNL1       -0.1875
     18 H         140.7999  146.0166  155.3318 H       1  UNL1        0.1762
     19 S         139.3421  147.6030  155.5644 S.O2    1  UNL1        0.0543
     20 O         139.2479  147.3041  157.0312 O.2     1  UNL1       -0.1545
     21 O         139.4363  147.9019  154.0974 O.2     1  UNL1       -0.1545
     22 C         138.8497  148.9971  155.8169 C.3     1  UNL1        0.1490
     23 C         138.1837  149.9968  156.7151 C.3     1  UNL1        0.0273
     24 C         138.6628  150.4122  155.3558 C.3     1  UNL1        0.0273
     25 C         140.1521  141.0167  154.0838 C.3     1  UNL1        0.0021
     26 C         140.0367  139.5344  153.8857 C.3     1  UNL1        0.0001
     27 C         141.3652  140.1451  154.2207 C.3     1  UNL1        0.0001
     28 O         142.9371  144.2253  161.3425 O.3     1  UNL1       -0.4621
     29 C         143.0560  142.7603  165.5957 C.ar    1  UNL1        0.1579
     30 C         144.3156  142.8052  164.7825 C.ar    1  UNL1        0.1388
     31 N         144.2759  143.2935  163.3647 N.ar    1  UNL1       -0.2069
     32 C         142.9768  143.7369  162.7603 C.ar    1  UNL1        0.2249
     33 C         141.7171  143.6921  163.5735 C.ar    1  UNL1        0.0570
     34 C         140.4179  144.1355  162.9691 C.ar    1  UNL1        0.0161
     35 C         139.1583  144.0906  163.7823 C.ar    1  UNL1        0.0578
     36 CL        137.8591  144.5340  163.1779 Cl      1  UNL1       -0.0822
     37 C         139.1980  143.6023  165.2001 C.ar    1  UNL1        0.0115
     38 C         140.4972  143.1588  165.8045 C.ar    1  UNL1        0.0041
     39 C         141.7567  143.2037  164.9913 C.ar    1  UNL1        0.0401
     40 C         142.7557  140.8446  167.3248 C.3     1  UNL1        0.2525
     41 O         143.0956  142.2720  167.0135 O.3     1  UNL1       -0.4699
     42 C         141.3413  139.0999  159.1959 C.3     1  UNL1        0.1512
     43 C         140.7089  138.5801  160.4528 C.3     1  UNL1        0.0270
     44 C         141.5700  138.0693  161.5698 C.3     1  UNL1        0.0021
     45 C         140.9376  137.5495  162.8268 C.3     1  UNL1        0.0001
     46 C         139.4442  137.5405  162.9668 C.3     1  UNL1        0.0000
     47 C         138.5831  138.0513  161.8498 C.3     1  UNL1        0.0001
     48 C         139.2155  138.5711  160.5928 C.3     1  UNL1        0.0021
     49 N         142.5344  138.4027  158.6127 N.am    1  UNL1       -0.2640
     50 C         142.3569  137.4258  157.4884 C.2     1  UNL1        0.4021
     51 O         140.9861  137.1463  156.9472 O.2     1  UNL1       -0.2264
     52 H         143.4341  138.5861  158.9680 H       1  UNL1        0.1532
     53 O         143.5500  136.7284  156.9051 O.3     1  UNL1       -0.4295
     54 C         143.3901  135.3875  156.2523 C.3     1  UNL1        0.2645
     55 C         142.8123  135.2897  154.8715 C.3     1  UNL1        0.0567
     56 C         143.8079  134.1443  156.9803 C.3     1  UNL1        0.4342
     57 F         144.2258  132.9012  157.7082 F       1  UNL1       -0.1664
     58 F         143.3792  134.7606  158.2789 F       1  UNL1       -0.1664
     59 F         144.2366  133.5281  155.6816 F       1  UNL1       -0.1664
@<TRIPOS>BOND
     1    40    41    1
     2    41    29    1
     3    29    30   ar
     4    30    31   ar
     5    31    32   ar
     6    32    28    1
     7     1    28    1
     8     1     2    1
     9     2     3    1
    10     3     8    1
    11     8     9    2
    12     8    10   am
    13    12    10    1
    14    12    15    1
    15    15    16    2
    16    15    17   am
    17    17    19    1
    18    19    20    2
    19    19    21    2
    20    19    22    1
    21    22    23    1
    22    23    24    1
    23    12    13    1
    24    13    14    1
    25    14    25    1
    26    25    26    1
    27    26    27    1
    28     3     4    1
    29     4     5   am
    30     5     6    2
    31     5    42    1
    32    42    49    1
    33    49    50   am
    34    50    51    2
    35    50    53    1
    36    53    54    1
    37    54    55    1
    38    54    56    1
    39    56    57    1
    40    56    58    1
    41    56    59    1
    42    42    43    1
    43    43    44    1
    44    44    45    1
    45    45    46    1
    46    46    47    1
    47    47    48    1
    48     4     7    1
    49    32    33   ar
    50    33    34   ar
    51    34    35   ar
    52    35    36    1
    53    35    37   ar
    54    37    38   ar
    55    38    39   ar
    56    39    29   ar
    57     7     1    1
    58    39    33   ar
    59    14    12    1
    60    27    25    1
    61    48    43    1
    62    24    22    1
    63    10    11    1
    64    17    18    1
    65    49    52    1
@<TRIPOS>MOLECULE
*****
 59 65 0 0 0
SMALL
GASTEIGER

@<TRIPOS>ATOM
      1 C         138.8750  139.7467  160.2770 C.3     1  UNL1        0.1894
      2 C         139.6169  138.8122  159.3680 C.3     1  UNL1        0.0746
      3 C         140.2700  139.6310  158.2943 C.3     1  UNL1        0.1555
      4 N         139.9317  141.0716  158.5397 N.am    1  UNL1       -0.2678
      5 C         140.3773  142.2363  157.7060 C.2     1  UNL1        0.2440
      6 O         141.2427  142.0094  156.5020 O.2     1  UNL1       -0.2731
      7 C         139.0695  141.1431  159.7650 C.3     1  UNL1        0.1373
      8 C         141.1134  139.1021  157.1722 C.2     1  UNL1        0.2409
      9 O         140.6410  139.2297  155.7544 O.2     1  UNL1       -0.2733
     10 N         142.4293  138.4456  157.4681 N.am    1  UNL1       -0.2985
     11 H         142.7394  138.3619  158.3987 H       1  UNL1        0.1498
     12 C         143.2726  137.9168  156.3460 C.3     1  UNL1        0.1271
     13 C         144.2825  137.8813  155.2375 C.3     1  UNL1        0.0290
     14 C         144.0451  139.1538  155.9953 C.3     1  UNL1        0.0270
     15 C         142.7931  136.4960  156.3071 C.2     1  UNL1        0.2564
     16 O         141.3228  136.2014  156.2704 O.2     1  UNL1       -0.2718
     17 N         143.7839  135.3698  156.3048 N.am    1  UNL1       -0.1875
     18 H         144.7489  135.5631  156.3288 H       1  UNL1        0.1762
     19 S         143.3044  133.9491  156.2658 S.O2    1  UNL1        0.0543
     20 O         143.3518  133.8920  157.7639 O.2     1  UNL1       -0.1545
     21 O         143.2570  134.0062  154.7676 O.2     1  UNL1       -0.1545
     22 C         142.8249  132.5284  156.2268 C.3     1  UNL1        0.1490
     23 C         142.9326  131.1077  156.6957 C.3     1  UNL1        0.0273
     24 C         141.8864  131.4883  155.6904 C.3     1  UNL1        0.0273
     25 C         144.3539  140.6028  156.2304 C.3     1  UNL1        0.0021
     26 C         144.6248  141.9769  155.6935 C.3     1  UNL1        0.0001
     27 C         144.6178  141.7382  157.1744 C.3     1  UNL1        0.0001
     28 O         138.0783  139.3538  161.4857 O.3     1  UNL1       -0.4621
     29 C         139.9615  139.5094  165.5697 C.ar    1  UNL1        0.1579
     30 C         139.8605  138.2030  164.8396 C.ar    1  UNL1        0.1388
     31 N         139.2328  138.1511  163.4783 N.ar    1  UNL1       -0.2069
     32 C         138.7060  139.4056  162.8470 C.ar    1  UNL1        0.2249
     33 C         138.8070  140.7122  163.5771 C.ar    1  UNL1        0.0570
     34 C         138.2802  141.9667  162.9458 C.ar    1  UNL1        0.0161
     35 C         138.3811  143.2731  163.6759 C.ar    1  UNL1        0.0578
     36 CL        137.8543  144.5278  163.0446 Cl      1  UNL1       -0.0822
     37 C         139.0088  143.3250  165.0372 C.ar    1  UNL1        0.0115
     38 C         139.5356  142.0704  165.6685 C.ar    1  UNL1        0.0041
     39 C         139.4347  140.7640  164.9384 C.ar    1  UNL1        0.0401
     40 C         142.0828  139.5715  167.0683 C.3     1  UNL1        0.2525
     41 O         140.5892  139.5613  166.9311 O.3     1  UNL1       -0.4699
     42 C         139.9575  143.6279  158.0763 C.3     1  UNL1        0.1512
     43 C         139.4273  144.5564  157.0242 C.3     1  UNL1        0.0270
     44 C         139.9554  145.9568  156.9246 C.3     1  UNL1        0.0021
     45 C         139.4252  146.8853  155.8725 C.3     1  UNL1        0.0001
     46 C         138.3669  146.4133  154.9200 C.3     1  UNL1        0.0000
     47 C         137.8389  145.0129  155.0196 C.3     1  UNL1        0.0001
     48 C         138.3691  144.0844  156.0717 C.3     1  UNL1        0.0021
     49 N         140.0680  144.0911  159.4987 N.am    1  UNL1       -0.2640
     50 C         141.4080  144.4519  160.0680 C.2     1  UNL1        0.4021
     51 O         142.6376  144.3496  159.2150 O.2     1  UNL1       -0.2264
     52 H         139.2610  144.1583  160.0586 H       1  UNL1        0.1532
     53 O         141.5186  144.9151  161.4905 O.3     1  UNL1       -0.4295
     54 C         142.1931  144.0477  162.5115 C.3     1  UNL1        0.2645
     55 C         141.9566  142.5664  162.5111 C.3     1  UNL1        0.0567
     56 C         143.1042  144.6615  163.5329 C.3     1  UNL1        0.4342
     57 F         144.0152  145.2752  164.5542 F       1  UNL1       -0.1664
     58 F         141.9902  144.6438  164.5372 F       1  UNL1       -0.1664
     59 F         144.2182  144.6791  162.5285 F       1  UNL1       -0.1664
@<TRIPOS>BOND
     1    40    41    1
     2    41    29    1
     3    29    30   ar
     4    30    31   ar
     5    31    32   ar
     6    32    28    1
     7     1    28    1
     8     1     2    1
     9     2     3    1
    10     3     8    1
    11     8     9    2
    12     8    10   am
    13    12    10    1
    14    12    15    1
    15    15    16    2
    16    15    17   am
    17    17    19    1
    18    19    20    2
    19    19    21    2
    20    19    22    1
    21    22    23    1
    22    23    24    1
    23    12    13    1
    24    13    14    1
    25    14    25    1
    26    25    26    1
    27    26    27    1
    28     3     4    1
    29     4     5   am
    30     5     6    2
    31     5    42    1
    32    42    49    1
    33    49    50   am
    34    50    51    2
    35    50    53    1
    36    53    54    1
    37    54    55    1
    38    54    56    1
    39    56    57    1
    40    56    58    1
    41    56    59    1
    42    42    43    1
    43    43    44    1
    44    44    45    1
    45    45    46    1
    46    46    47    1
    47    47    48    1
    48     4     7    1
    49    32    33   ar
    50    33    34   ar
    51    34    35   ar
    52    35    36    1
    53    35    37   ar
    54    37    38   ar
    55    38    39   ar
    56    39    29   ar
    57     7     1    1
    58    39    33   ar
    59    14    12    1
    60    27    25    1
    61    48    43    1
    62    24    22    1
    63    10    11    1
    64    17    18    1
    65    49    52    1
