@<TRIPOS>MOLECULE
*****
 33 37 0 0 0
SMALL
GASTEIGER

@<TRIPOS>ATOM
      1 C         138.5137  139.5304  164.4504 C.ar    1  UNL1        0.1564
      2 C         138.8974  138.0951  164.2441 C.ar    1  UNL1        0.0385
      3 C         139.1877  137.5874  162.8628 C.ar    1  UNL1        0.0033
      4 C         139.0943  138.5151  161.6878 C.ar    1  UNL1        0.0048
      5 C         138.7105  139.9504  161.8941 C.ar    1  UNL1        0.0567
      6 C         138.4202  140.4580  163.2754 C.ar    1  UNL1        0.1209
      7 N         138.0364  141.8934  163.4817 N.ar    1  UNL1       -0.2108
      8 C         137.9430  142.8211  162.3067 C.ar    1  UNL1        0.2163
      9 N         137.5592  144.2564  162.5129 N.pl3   1  UNL1       -0.3274
     10 N         138.2333  142.3134  160.9254 N.ar    1  UNL1       -0.1813
     11 N         138.2228  142.9875  159.5854 N.ar    1  UNL1       -0.1451
     12 C         138.6001  141.9689  158.5511 C.ar    1  UNL1        0.1769
     13 N         138.8437  140.6651  159.2517 N.ar    1  UNL1       -0.2086
     14 C         138.6170  140.8781  160.7191 C.ar    1  UNL1        0.1695
     15 H         137.3687  144.5897  163.4195 H       1  UNL1        0.1452
     16 H         137.4979  144.8653  161.7417 H       1  UNL1        0.1452
     17 C         138.0963  139.0740  166.9738 C.3     1  UNL1        0.2525
     18 O         138.2233  140.0381  165.8317 O.3     1  UNL1       -0.4699
     19 C         138.7137  142.2114  157.0751 C.3     1  UNL1        0.1408
     20 N         138.8873  143.6078  156.5557 N.3     1  UNL1       -0.2644
     21 C         140.0893  144.4121  156.9537 C.3     1  UNL1        0.0941
     22 C         140.2628  145.8086  156.4342 C.3     1  UNL1        0.1081
     23 N         139.2343  146.4007  155.5168 N.pl3   1  UNL1       -0.3046
     24 C         138.0324  145.5964  155.1188 C.3     1  UNL1        0.1067
     25 C         137.8589  144.2000  155.6382 C.3     1  UNL1        0.0777
     26 C         136.6569  143.3957  155.2403 C.3     1  UNL1        0.0192
     27 C         139.4078  147.7971  154.9973 C.ar    1  UNL1        0.0502
     28 C         140.2588  148.0470  153.7875 C.ar    1  UNL1        0.0147
     29 C         140.4323  149.4435  153.2681 C.ar    1  UNL1        0.0036
     30 C         139.7549  150.5900  153.9584 C.ar    1  UNL1        0.0297
     31 C         138.9040  150.3402  155.1682 C.ar    1  UNL1        0.1414
     32 F         138.2266  151.4867  155.8584 F       1  UNL1       -0.2041
     33 C         138.7305  148.9437  155.6876 C.ar    1  UNL1        0.0441
@<TRIPOS>BOND
     1    17    18    1
     2    18     1    1
     3     1     2   ar
     4     2     3   ar
     5     3     4   ar
     6     4     5   ar
     7     5     6   ar
     8     6     7   ar
     9     7     8   ar
    10     8     9    1
    11     8    10   ar
    12    10    11   ar
    13    11    12   ar
    14    12    19    1
    15    19    20    1
    16    20    21    1
    17    21    22    1
    18    22    23    1
    19    23    27    1
    20    27    28   ar
    21    28    29   ar
    22    29    30   ar
    23    30    31   ar
    24    31    32    1
    25    31    33   ar
    26    23    24    1
    27    24    25    1
    28    25    26    1
    29    12    13   ar
    30    13    14   ar
    31     6     1   ar
    32    14    10   ar
    33    14     5   ar
    34    25    20    1
    35    33    27   ar
    36     9    15    1
    37     9    16    1
@<TRIPOS>MOLECULE
*****
 33 37 0 0 0
SMALL
GASTEIGER

@<TRIPOS>ATOM
      1 C         142.4613  137.9458  156.3648 C.ar    1  UNL1        0.1564
      2 C         141.4601  138.2861  155.3010 C.ar    1  UNL1        0.0385
      3 C         140.0877  138.7543  155.6848 C.ar    1  UNL1        0.0033
      4 C         139.7166  138.8823  157.1325 C.ar    1  UNL1        0.0048
      5 C         140.7178  138.5420  158.1963 C.ar    1  UNL1        0.0567
      6 C         142.0901  138.0738  157.8125 C.ar    1  UNL1        0.1209
      7 N         143.0914  137.7335  158.8764 N.ar    1  UNL1       -0.2108
      8 C         142.7202  137.8615  160.3241 C.ar    1  UNL1        0.2163
      9 N         143.7214  137.5212  161.3880 N.pl3   1  UNL1       -0.3274
     10 N         141.3478  138.3297  160.7079 N.ar    1  UNL1       -0.1813
     11 N         140.6998  138.5519  162.0423 N.ar    1  UNL1       -0.1451
     12 C         139.2982  139.0295  161.8032 C.ar    1  UNL1        0.1769
     13 N         139.0799  139.1025  160.3210 N.ar    1  UNL1       -0.2086
     14 C         140.3466  138.6700  159.6441 C.ar    1  UNL1        0.1695
     15 H         144.6222  137.2139  161.1361 H       1  UNL1        0.1452
     16 H         143.4778  137.6052  162.3381 H       1  UNL1        0.1452
     17 C         144.0673  136.0343  155.6459 C.3     1  UNL1        0.2525
     18 O         143.8337  137.4776  155.9809 O.3     1  UNL1       -0.4699
     19 C         138.2915  139.3738  162.8607 C.3     1  UNL1        0.1408
     20 N         138.7510  139.8429  164.2093 N.3     1  UNL1       -0.2644
     21 C         138.9934  141.3030  164.4530 C.3     1  UNL1        0.0941
     22 C         139.4530  141.7721  165.8017 C.3     1  UNL1        0.1081
     23 N         139.6701  140.7810  166.9066 N.pl3   1  UNL1       -0.3046
     24 C         139.4277  139.3210  166.6628 C.3     1  UNL1        0.1067
     25 C         138.9682  138.8519  165.3142 C.3     1  UNL1        0.0777
     26 C         138.7257  137.3918  165.0704 C.3     1  UNL1        0.0192
     27 C         140.1296  141.2501  168.2552 C.ar    1  UNL1        0.0502
     28 C         140.4008  140.2539  169.3435 C.ar    1  UNL1        0.0147
     29 C         140.8603  140.7230  170.6921 C.ar    1  UNL1        0.0036
     30 C         141.0487  142.1882  170.9525 C.ar    1  UNL1        0.0297
     31 C         140.7776  143.1843  169.8642 C.ar    1  UNL1        0.1414
     32 F         140.9660  144.6494  170.1246 F       1  UNL1       -0.2041
     33 C         140.3181  142.7152  168.5156 C.ar    1  UNL1        0.0441
@<TRIPOS>BOND
     1    17    18    1
     2    18     1    1
     3     1     2   ar
     4     2     3   ar
     5     3     4   ar
     6     4     5   ar
     7     5     6   ar
     8     6     7   ar
     9     7     8   ar
    10     8     9    1
    11     8    10   ar
    12    10    11   ar
    13    11    12   ar
    14    12    19    1
    15    19    20    1
    16    20    21    1
    17    21    22    1
    18    22    23    1
    19    23    27    1
    20    27    28   ar
    21    28    29   ar
    22    29    30   ar
    23    30    31   ar
    24    31    32    1
    25    31    33   ar
    26    23    24    1
    27    24    25    1
    28    25    26    1
    29    12    13   ar
    30    13    14   ar
    31     6     1   ar
    32    14    10   ar
    33    14     5   ar
    34    25    20    1
    35    33    27   ar
    36     9    15    1
    37     9    16    1
@<TRIPOS>MOLECULE
*****
 33 37 0 0 0
SMALL
GASTEIGER

@<TRIPOS>ATOM
      1 C         140.2383  146.2814  156.5403 C.ar    1  UNL1        0.1564
      2 C         141.0460  145.8685  155.3458 C.ar    1  UNL1        0.0385
      3 C         142.2108  144.9382  155.5132 C.ar    1  UNL1        0.0033
      4 C         142.5678  144.4209  156.8751 C.ar    1  UNL1        0.0048
      5 C         141.7600  144.8339  158.0696 C.ar    1  UNL1        0.0567
      6 C         140.5953  145.7641  157.9022 C.ar    1  UNL1        0.1209
      7 N         139.7875  146.1770  159.0969 N.ar    1  UNL1       -0.2108
      8 C         140.1445  145.6597  160.4588 C.ar    1  UNL1        0.2163
      9 N         139.3367  146.0726  161.6534 N.pl3   1  UNL1       -0.3274
     10 N         141.3092  144.7295  160.6262 N.ar    1  UNL1       -0.1813
     11 N         141.8952  144.0623  161.8351 N.ar    1  UNL1       -0.1451
     12 C         143.0651  143.2370  161.3877 C.ar    1  UNL1        0.1769
     13 N         143.2022  143.3941  159.9022 N.ar    1  UNL1       -0.2086
     14 C         142.1170  144.3166  159.4317 C.ar    1  UNL1        0.1695
     15 H         138.5722  146.6832  161.5436 H       1  UNL1        0.1452
     16 H         139.5710  145.7331  162.5473 H       1  UNL1        0.1452
     17 C         138.9422  148.0319  155.1240 C.3     1  UNL1        0.2525
     18 O         139.0735  147.2116  156.3729 O.3     1  UNL1       -0.4699
     19 C         143.9437  142.4012  162.2706 C.3     1  UNL1        0.1408
     20 N         143.4456  141.9472  163.6107 N.3     1  UNL1       -0.2644
     21 C         142.7914  140.6047  163.7522 C.3     1  UNL1        0.0941
     22 C         142.2932  140.1507  165.0922 C.3     1  UNL1        0.1081
     23 N         142.4493  141.0391  166.2907 N.pl3   1  UNL1       -0.3046
     24 C         143.1034  142.3815  166.1492 C.3     1  UNL1        0.1067
     25 C         143.6016  142.8355  164.8092 C.3     1  UNL1        0.0777
     26 C         144.2557  144.1779  164.6677 C.3     1  UNL1        0.0192
     27 C         141.9511  140.5851  167.6308 C.ar    1  UNL1        0.0502
     28 C         140.7276  141.2142  168.2286 C.ar    1  UNL1        0.0147
     29 C         140.2294  140.7601  169.5686 C.ar    1  UNL1        0.0036
     30 C         140.9548  139.6770  170.3108 C.ar    1  UNL1        0.0297
     31 C         142.1782  139.0480  169.7130 C.ar    1  UNL1        0.1414
     32 F         142.9035  137.9649  170.4552 F       1  UNL1       -0.2041
     33 C         142.6764  139.5020  168.3730 C.ar    1  UNL1        0.0441
@<TRIPOS>BOND
     1    17    18    1
     2    18     1    1
     3     1     2   ar
     4     2     3   ar
     5     3     4   ar
     6     4     5   ar
     7     5     6   ar
     8     6     7   ar
     9     7     8   ar
    10     8     9    1
    11     8    10   ar
    12    10    11   ar
    13    11    12   ar
    14    12    19    1
    15    19    20    1
    16    20    21    1
    17    21    22    1
    18    22    23    1
    19    23    27    1
    20    27    28   ar
    21    28    29   ar
    22    29    30   ar
    23    30    31   ar
    24    31    32    1
    25    31    33   ar
    26    23    24    1
    27    24    25    1
    28    25    26    1
    29    12    13   ar
    30    13    14   ar
    31     6     1   ar
    32    14    10   ar
    33    14     5   ar
    34    25    20    1
    35    33    27   ar
    36     9    15    1
    37     9    16    1
@<TRIPOS>MOLECULE
*****
 33 37 0 0 0
SMALL
GASTEIGER

@<TRIPOS>ATOM
      1 C         141.0216  143.8930  156.4572 C.ar    1  UNL1        0.1564
      2 C         141.7662  145.1703  156.7100 C.ar    1  UNL1        0.0385
      3 C         141.6810  145.8352  158.0519 C.ar    1  UNL1        0.0033
      4 C         140.8512  145.2227  159.1410 C.ar    1  UNL1        0.0048
      5 C         140.1066  143.9453  158.8882 C.ar    1  UNL1        0.0567
      6 C         140.1918  143.2805  157.5463 C.ar    1  UNL1        0.1209
      7 N         139.4472  142.0031  157.2935 N.ar    1  UNL1       -0.2108
      8 C         138.6173  141.3906  158.3826 C.ar    1  UNL1        0.2163
      9 N         137.8727  140.1132  158.1298 N.pl3   1  UNL1       -0.3274
     10 N         138.5321  142.0554  159.7245 N.ar    1  UNL1       -0.1813
     11 N         137.7996  141.6895  160.9813 N.ar    1  UNL1       -0.1451
     12 C         138.0915  142.7406  162.0108 C.ar    1  UNL1        0.1769
     13 N         139.0044  143.7563  161.3903 N.ar    1  UNL1       -0.2086
     14 C         139.2767  143.3328  159.9773 C.ar    1  UNL1        0.1695
     15 H         137.9286  139.6769  157.2491 H       1  UNL1        0.1452
     16 H         137.3280  139.7112  158.8447 H       1  UNL1        0.1452
     17 C         140.3438  143.7876  153.9513 C.3     1  UNL1        0.2525
     18 O         141.1068  143.2282  155.1153 O.3     1  UNL1       -0.4699
     19 C         137.5632  142.7708  163.4144 C.3     1  UNL1        0.1408
     20 N         138.4504  142.3780  164.5583 N.3     1  UNL1       -0.2644
     21 C         138.5385  140.9411  164.9800 C.3     1  UNL1        0.0941
     22 C         139.4258  140.5483  166.1239 C.3     1  UNL1        0.1081
     23 N         140.2249  141.5924  166.8461 N.pl3   1  UNL1       -0.3046
     24 C         140.1367  143.0291  166.4244 C.3     1  UNL1        0.1067
     25 C         139.2495  143.4219  165.2805 C.3     1  UNL1        0.0777
     26 C         139.1613  144.8587  164.8588 C.3     1  UNL1        0.0192
     27 C         141.1121  141.1995  167.9900 C.ar    1  UNL1        0.0502
     28 C         140.7834  139.9891  168.8128 C.ar    1  UNL1        0.0147
     29 C         141.6706  139.5963  169.9567 C.ar    1  UNL1        0.0036
     30 C         142.8866  140.4139  170.2778 C.ar    1  UNL1        0.0297
     31 C         143.2152  141.6242  169.4551 C.ar    1  UNL1        0.1414
     32 F         144.4311  142.4418  169.7762 F       1  UNL1       -0.2041
     33 C         142.3280  142.0171  168.3112 C.ar    1  UNL1        0.0441
@<TRIPOS>BOND
     1    17    18    1
     2    18     1    1
     3     1     2   ar
     4     2     3   ar
     5     3     4   ar
     6     4     5   ar
     7     5     6   ar
     8     6     7   ar
     9     7     8   ar
    10     8     9    1
    11     8    10   ar
    12    10    11   ar
    13    11    12   ar
    14    12    19    1
    15    19    20    1
    16    20    21    1
    17    21    22    1
    18    22    23    1
    19    23    27    1
    20    27    28   ar
    21    28    29   ar
    22    29    30   ar
    23    30    31   ar
    24    31    32    1
    25    31    33   ar
    26    23    24    1
    27    24    25    1
    28    25    26    1
    29    12    13   ar
    30    13    14   ar
    31     6     1   ar
    32    14    10   ar
    33    14     5   ar
    34    25    20    1
    35    33    27   ar
    36     9    15    1
    37     9    16    1
@<TRIPOS>MOLECULE
*****
 33 37 0 0 0
SMALL
GASTEIGER

@<TRIPOS>ATOM
      1 C         142.8613  132.0494  153.5945 C.ar    1  UNL1        0.1564
      2 C         142.1298  132.4316  152.3420 C.ar    1  UNL1        0.0385
      3 C         141.5157  133.7945  152.2183 C.ar    1  UNL1        0.0033
      4 C         141.6332  134.7753  153.3472 C.ar    1  UNL1        0.0048
      5 C         142.3647  134.3930  154.5997 C.ar    1  UNL1        0.0567
      6 C         142.9788  133.0301  154.7233 C.ar    1  UNL1        0.1209
      7 N         143.7103  132.6479  155.9759 N.ar    1  UNL1       -0.2108
      8 C         143.8277  133.6287  157.1047 C.ar    1  UNL1        0.2163
      9 N         144.5593  133.2465  158.3573 N.pl3   1  UNL1       -0.3274
     10 N         143.2137  134.9916  156.9811 N.ar    1  UNL1       -0.1813
     11 N         143.1670  136.1604  157.9201 N.ar    1  UNL1       -0.1451
     12 C         142.4067  137.2649  157.2479 C.ar    1  UNL1        0.1769
     13 N         141.9834  136.7788  155.8934 N.ar    1  UNL1       -0.2086
     14 C         142.4821  135.3738  155.7286 C.ar    1  UNL1        0.1695
     15 H         144.9623  132.3519  158.4385 H       1  UNL1        0.1452
     16 H         144.6363  133.8902  159.0982 H       1  UNL1        0.1452
     17 C         144.1023  130.0349  152.5213 C.3     1  UNL1        0.2525
     18 O         143.4754  130.6864  153.7181 O.3     1  UNL1       -0.4699
     19 C         142.1199  138.6181  157.8283 C.3     1  UNL1        0.1408
     20 N         141.4613  138.7341  159.1709 N.3     1  UNL1       -0.2644
     21 C         139.9728  138.5916  159.2910 C.3     1  UNL1        0.0941
     22 C         139.3142  138.7076  160.6336 C.3     1  UNL1        0.1081
     23 N         140.1440  138.9660  161.8563 N.pl3   1  UNL1       -0.3046
     24 C         141.6323  139.1084  161.7362 C.3     1  UNL1        0.1067
     25 C         142.2910  138.9924  160.3935 C.3     1  UNL1        0.0777
     26 C         143.7793  139.1349  160.2734 C.3     1  UNL1        0.0192
     27 C         139.4854  139.0819  163.1989 C.ar    1  UNL1        0.0502
     28 C         139.1359  140.4331  163.7487 C.ar    1  UNL1        0.0147
     29 C         138.4773  140.5491  165.0914 C.ar    1  UNL1        0.0036
     30 C         138.1681  139.3138  165.8843 C.ar    1  UNL1        0.0297
     31 C         138.5175  137.9627  165.3345 C.ar    1  UNL1        0.1414
     32 F         138.2083  136.7275  166.1273 F       1  UNL1       -0.2041
     33 C         139.1762  137.8467  163.9918 C.ar    1  UNL1        0.0441
@<TRIPOS>BOND
     1    17    18    1
     2    18     1    1
     3     1     2   ar
     4     2     3   ar
     5     3     4   ar
     6     4     5   ar
     7     5     6   ar
     8     6     7   ar
     9     7     8   ar
    10     8     9    1
    11     8    10   ar
    12    10    11   ar
    13    11    12   ar
    14    12    19    1
    15    19    20    1
    16    20    21    1
    17    21    22    1
    18    22    23    1
    19    23    27    1
    20    27    28   ar
    21    28    29   ar
    22    29    30   ar
    23    30    31   ar
    24    31    32    1
    25    31    33   ar
    26    23    24    1
    27    24    25    1
    28    25    26    1
    29    12    13   ar
    30    13    14   ar
    31     6     1   ar
    32    14    10   ar
    33    14     5   ar
    34    25    20    1
    35    33    27   ar
    36     9    15    1
    37     9    16    1
@<TRIPOS>MOLECULE
*****
 33 37 0 0 0
SMALL
GASTEIGER

@<TRIPOS>ATOM
      1 C         144.0046  131.6274  155.6375 C.ar    1  UNL1        0.1564
      2 C         144.8683  131.1938  156.7847 C.ar    1  UNL1        0.0385
      3 C         145.1097  132.1250  157.9356 C.ar    1  UNL1        0.0033
      4 C         144.4874  133.4898  157.9394 C.ar    1  UNL1        0.0048
      5 C         143.6237  133.9234  156.7922 C.ar    1  UNL1        0.0567
      6 C         143.3823  132.9922  155.6413 C.ar    1  UNL1        0.1209
      7 N         142.5186  133.4258  154.4941 N.ar    1  UNL1       -0.2108
      8 C         141.8963  134.7906  154.4979 C.ar    1  UNL1        0.2163
      9 N         141.0325  135.2243  153.3507 N.pl3   1  UNL1       -0.3274
     10 N         142.1377  135.7218  155.6488 N.ar    1  UNL1       -0.1813
     11 N         141.6616  137.1165  155.9284 N.ar    1  UNL1       -0.1451
     12 C         142.2311  137.5448  157.2483 C.ar    1  UNL1        0.1769
     13 N         143.0591  136.4149  157.7845 N.ar    1  UNL1       -0.2086
     14 C         143.0014  135.2882  156.7960 C.ar    1  UNL1        0.1695
     15 H         140.8741  134.6131  152.5953 H       1  UNL1        0.1452
     16 H         140.6241  136.1200  153.3532 H       1  UNL1        0.1452
     17 C         142.6930  129.6494  154.5805 C.3     1  UNL1        0.2525
     18 O         143.7632  130.6962  154.4866 O.3     1  UNL1       -0.4699
     19 C         142.0112  138.8705  157.9150 C.3     1  UNL1        0.1408
     20 N         141.3818  138.9306  159.2752 N.3     1  UNL1       -0.2644
     21 C         139.8929  138.8179  159.4184 C.3     1  UNL1        0.0941
     22 C         139.2636  138.8780  160.7787 C.3     1  UNL1        0.1081
     23 N         140.1232  139.0509  161.9958 N.pl3   1  UNL1       -0.3046
     24 C         141.6120  139.1635  161.8526 C.3     1  UNL1        0.1067
     25 C         142.2414  139.1034  160.4923 C.3     1  UNL1        0.0777
     26 C         143.7302  139.2161  160.3491 C.3     1  UNL1        0.0192
     27 C         139.4938  139.1110  163.3560 C.ar    1  UNL1        0.0502
     28 C         139.2452  140.4382  164.0094 C.ar    1  UNL1        0.0147
     29 C         138.6159  140.4983  165.3697 C.ar    1  UNL1        0.0036
     30 C         138.2352  139.2312  166.0766 C.ar    1  UNL1        0.0297
     31 C         138.4838  137.9041  165.4232 C.ar    1  UNL1        0.1414
     32 F         138.1030  136.6371  166.1301 F       1  UNL1       -0.2041
     33 C         139.1131  137.8440  164.0629 C.ar    1  UNL1        0.0441
@<TRIPOS>BOND
     1    17    18    1
     2    18     1    1
     3     1     2   ar
     4     2     3   ar
     5     3     4   ar
     6     4     5   ar
     7     5     6   ar
     8     6     7   ar
     9     7     8   ar
    10     8     9    1
    11     8    10   ar
    12    10    11   ar
    13    11    12   ar
    14    12    19    1
    15    19    20    1
    16    20    21    1
    17    21    22    1
    18    22    23    1
    19    23    27    1
    20    27    28   ar
    21    28    29   ar
    22    29    30   ar
    23    30    31   ar
    24    31    32    1
    25    31    33   ar
    26    23    24    1
    27    24    25    1
    28    25    26    1
    29    12    13   ar
    30    13    14   ar
    31     6     1   ar
    32    14    10   ar
    33    14     5   ar
    34    25    20    1
    35    33    27   ar
    36     9    15    1
    37     9    16    1
@<TRIPOS>MOLECULE
*****
 33 37 0 0 0
SMALL
GASTEIGER

@<TRIPOS>ATOM
      1 C         138.4040  139.6336  169.3219 C.ar    1  UNL1        0.1564
      2 C         137.6949  138.9566  168.1866 C.ar    1  UNL1        0.0385
      3 C         138.2369  139.0652  166.7922 C.ar    1  UNL1        0.0033
      4 C         139.4881  139.8510  166.5330 C.ar    1  UNL1        0.0048
      5 C         140.1972  140.5280  167.6683 C.ar    1  UNL1        0.0567
      6 C         139.6551  140.4193  169.0627 C.ar    1  UNL1        0.1209
      7 N         140.3643  141.0963  170.1979 N.ar    1  UNL1       -0.2108
      8 C         141.6155  141.8820  169.9387 C.ar    1  UNL1        0.2163
      9 N         142.3246  142.5591  171.0740 N.pl3   1  UNL1       -0.3274
     10 N         142.1575  141.9907  168.5443 N.ar    1  UNL1       -0.1813
     11 N         143.3613  142.6911  167.9872 N.ar    1  UNL1       -0.1451
     12 C         143.3962  142.4469  166.5076 C.ar    1  UNL1        0.1769
     13 N         142.2139  141.5956  166.1503 N.ar    1  UNL1       -0.2086
     14 C         141.4484  141.3137  167.4091 C.ar    1  UNL1        0.1695
     15 H         141.9689  142.4878  171.9892 H       1  UNL1        0.1452
     16 H         143.1458  143.0748  170.9039 H       1  UNL1        0.1452
     17 C         136.5737  138.7981  170.9656 C.3     1  UNL1        0.2525
     18 O         137.8619  139.5249  170.7163 O.3     1  UNL1       -0.4699
     19 C         144.4315  142.9633  165.5529 C.3     1  UNL1        0.1408
     20 N         144.3013  142.6875  164.0842 N.3     1  UNL1       -0.2644
     21 C         144.7271  141.3604  163.5296 C.3     1  UNL1        0.0941
     22 C         144.5969  141.0846  162.0610 C.3     1  UNL1        0.1081
     23 N         144.0409  142.1360  161.1468 N.pl3   1  UNL1       -0.3046
     24 C         143.6151  143.4631  161.7014 C.3     1  UNL1        0.1067
     25 C         143.7453  143.7388  163.1701 C.3     1  UNL1        0.0777
     26 C         143.3196  145.0659  163.7247 C.3     1  UNL1        0.0192
     27 C         143.9106  141.8603  159.6782 C.ar    1  UNL1        0.0502
     28 C         142.7683  141.0320  159.1690 C.ar    1  UNL1        0.0147
     29 C         142.6381  140.7563  157.7003 C.ar    1  UNL1        0.0036
     30 C         143.6502  141.3088  156.7408 C.ar    1  UNL1        0.0297
     31 C         144.7924  142.1370  157.2500 C.ar    1  UNL1        0.1414
     32 F         145.8045  142.6894  156.2906 F       1  UNL1       -0.2041
     33 C         144.9227  142.4127  158.7187 C.ar    1  UNL1        0.0441
@<TRIPOS>BOND
     1    17    18    1
     2    18     1    1
     3     1     2   ar
     4     2     3   ar
     5     3     4   ar
     6     4     5   ar
     7     5     6   ar
     8     6     7   ar
     9     7     8   ar
    10     8     9    1
    11     8    10   ar
    12    10    11   ar
    13    11    12   ar
    14    12    19    1
    15    19    20    1
    16    20    21    1
    17    21    22    1
    18    22    23    1
    19    23    27    1
    20    27    28   ar
    21    28    29   ar
    22    29    30   ar
    23    30    31   ar
    24    31    32    1
    25    31    33   ar
    26    23    24    1
    27    24    25    1
    28    25    26    1
    29    12    13   ar
    30    13    14   ar
    31     6     1   ar
    32    14    10   ar
    33    14     5   ar
    34    25    20    1
    35    33    27   ar
    36     9    15    1
    37     9    16    1
@<TRIPOS>MOLECULE
*****
 33 37 0 0 0
SMALL
GASTEIGER

@<TRIPOS>ATOM
      1 C         140.2975  145.2709  156.3269 C.ar    1  UNL1        0.1564
      2 C         141.0922  144.6141  155.2374 C.ar    1  UNL1        0.0385
      3 C         142.2778  143.7627  155.5829 C.ar    1  UNL1        0.0033
      4 C         142.6688  143.5680  157.0179 C.ar    1  UNL1        0.0048
      5 C         141.8741  144.2248  158.1074 C.ar    1  UNL1        0.0567
      6 C         140.6885  145.0763  157.7619 C.ar    1  UNL1        0.1209
      7 N         139.8938  145.7331  158.8515 N.ar    1  UNL1       -0.2108
      8 C         140.2847  145.5385  160.2865 C.ar    1  UNL1        0.2163
      9 N         139.4900  146.1953  161.3761 N.pl3   1  UNL1       -0.3274
     10 N         141.4703  144.6870  160.6320 N.ar    1  UNL1       -0.1813
     11 N         142.0905  144.3156  161.9463 N.ar    1  UNL1       -0.1451
     12 C         143.2684  143.4292  161.6691 C.ar    1  UNL1        0.1769
     13 N         143.3763  143.2529  160.1834 N.ar    1  UNL1       -0.2086
     14 C         142.2650  144.0302  159.5425 C.ar    1  UNL1        0.1695
     15 H         138.7119  146.7541  161.1494 H       1  UNL1        0.1452
     16 H         139.7466  146.0675  162.3179 H       1  UNL1        0.1452
     17 C         139.2963  147.3725  155.1733 C.3     1  UNL1        0.2525
     18 O         139.1119  146.1223  155.9815 O.3     1  UNL1       -0.4699
     19 C         144.1786  142.8253  162.6971 C.3     1  UNL1        0.1408
     20 N         143.6124  142.2931  163.9801 N.3     1  UNL1       -0.2644
     21 C         142.8429  143.2004  164.8937 C.3     1  UNL1        0.0941
     22 C         142.2767  142.6682  166.1768 C.3     1  UNL1        0.1081
     23 N         142.4801  141.2287  166.5462 N.pl3   1  UNL1       -0.3046
     24 C         143.2496  140.3214  165.6326 C.3     1  UNL1        0.1067
     25 C         143.8158  140.8536  164.3496 C.3     1  UNL1        0.0777
     26 C         144.5853  139.9463  163.4360 C.3     1  UNL1        0.0192
     27 C         141.9139  140.6965  167.8293 C.ar    1  UNL1        0.0502
     28 C         142.6996  139.7127  168.6447 C.ar    1  UNL1        0.0147
     29 C         142.1334  139.1805  169.9278 C.ar    1  UNL1        0.0036
     30 C         140.7815  139.6321  170.3953 C.ar    1  UNL1        0.0297
     31 C         139.9959  140.6158  169.5799 C.ar    1  UNL1        0.1414
     32 F         138.6441  141.0673  170.0474 F       1  UNL1       -0.2041
     33 C         140.5621  141.1480  168.2968 C.ar    1  UNL1        0.0441
@<TRIPOS>BOND
     1    17    18    1
     2    18     1    1
     3     1     2   ar
     4     2     3   ar
     5     3     4   ar
     6     4     5   ar
     7     5     6   ar
     8     6     7   ar
     9     7     8   ar
    10     8     9    1
    11     8    10   ar
    12    10    11   ar
    13    11    12   ar
    14    12    19    1
    15    19    20    1
    16    20    21    1
    17    21    22    1
    18    22    23    1
    19    23    27    1
    20    27    28   ar
    21    28    29   ar
    22    29    30   ar
    23    30    31   ar
    24    31    32    1
    25    31    33   ar
    26    23    24    1
    27    24    25    1
    28    25    26    1
    29    12    13   ar
    30    13    14   ar
    31     6     1   ar
    32    14    10   ar
    33    14     5   ar
    34    25    20    1
    35    33    27   ar
    36     9    15    1
    37     9    16    1
@<TRIPOS>MOLECULE
*****
 33 37 0 0 0
SMALL
GASTEIGER

@<TRIPOS>ATOM
      1 C         139.6156  144.9333  156.8163 C.ar    1  UNL1        0.1564
      2 C         140.6694  145.9111  157.2443 C.ar    1  UNL1        0.0385
      3 C         141.4778  145.6493  158.4804 C.ar    1  UNL1        0.0033
      4 C         141.2324  144.4096  159.2885 C.ar    1  UNL1        0.0048
      5 C         140.1785  143.4318  158.8605 C.ar    1  UNL1        0.0567
      6 C         139.3701  143.6937  157.6244 C.ar    1  UNL1        0.1209
      7 N         138.3162  142.7158  157.1963 N.ar    1  UNL1       -0.2108
      8 C         138.0708  141.4762  158.0044 C.ar    1  UNL1        0.2163
      9 N         137.0169  140.4983  157.5764 N.pl3   1  UNL1       -0.3274
     10 N         138.8792  141.2143  159.2405 N.ar    1  UNL1       -0.1813
     11 N         138.8626  140.0877  160.2307 N.ar    1  UNL1       -0.1451
     12 C         139.9062  140.3692  161.2706 C.ar    1  UNL1        0.1769
     13 N         140.5678  141.6699  160.9232 N.ar    1  UNL1       -0.2086
     14 C         139.9330  142.1921  159.6685 C.ar    1  UNL1        0.1695
     15 H         136.4863  140.6701  156.7651 H       1  UNL1        0.1452
     16 H         136.8558  139.6847  158.1068 H       1  UNL1        0.1452
     17 C         138.5150  146.6051  155.1598 C.3     1  UNL1        0.2525
     18 O         138.8072  145.1952  155.5802 O.3     1  UNL1       -0.4699
     19 C         140.2313  139.5023  162.4509 C.3     1  UNL1        0.1408
     20 N         140.5893  140.1291  163.7658 N.3     1  UNL1       -0.2644
     21 C         142.0232  140.4294  164.0878 C.3     1  UNL1        0.0941
     22 C         142.3812  141.0561  165.4028 C.3     1  UNL1        0.1081
     23 N         141.3053  141.3825  166.3957 N.pl3   1  UNL1       -0.3046
     24 C         139.8714  141.0822  166.0737 C.3     1  UNL1        0.1067
     25 C         139.5134  140.4554  164.7587 C.3     1  UNL1        0.0777
     26 C         138.0795  140.1551  164.4367 C.3     1  UNL1        0.0192
     27 C         141.6632  142.0092  167.7106 C.ar    1  UNL1        0.0502
     28 C         140.6156  142.7262  168.5097 C.ar    1  UNL1        0.0147
     29 C         140.9736  143.3530  169.8246 C.ar    1  UNL1        0.0036
     30 C         142.3792  143.2627  170.3405 C.ar    1  UNL1        0.0297
     31 C         143.4268  142.5457  169.5415 C.ar    1  UNL1        0.1414
     32 F         144.8324  142.4554  170.0574 F       1  UNL1       -0.2041
     33 C         143.0688  141.9190  168.2265 C.ar    1  UNL1        0.0441
@<TRIPOS>BOND
     1    17    18    1
     2    18     1    1
     3     1     2   ar
     4     2     3   ar
     5     3     4   ar
     6     4     5   ar
     7     5     6   ar
     8     6     7   ar
     9     7     8   ar
    10     8     9    1
    11     8    10   ar
    12    10    11   ar
    13    11    12   ar
    14    12    19    1
    15    19    20    1
    16    20    21    1
    17    21    22    1
    18    22    23    1
    19    23    27    1
    20    27    28   ar
    21    28    29   ar
    22    29    30   ar
    23    30    31   ar
    24    31    32    1
    25    31    33   ar
    26    23    24    1
    27    24    25    1
    28    25    26    1
    29    12    13   ar
    30    13    14   ar
    31     6     1   ar
    32    14    10   ar
    33    14     5   ar
    34    25    20    1
    35    33    27   ar
    36     9    15    1
    37     9    16    1
