@<TRIPOS>MOLECULE
*****
 33 36 0 0 0
SMALL
GASTEIGER

@<TRIPOS>ATOM
      1 N         143.2789  140.2433  160.5464 N.3     1  UNL1       -0.2668
      2 C         143.9706  141.3698  161.2551 C.3     1  UNL1        0.1035
      3 C         143.3067  142.7109  161.3586 C.3     1  UNL1        0.1470
      4 C         142.6428  144.0520  161.4621 C.3     1  UNL1        0.1035
      5 N         141.2872  144.2665  160.8567 N.3     1  UNL1       -0.2673
      6 C         140.5955  143.1399  160.1480 C.3     1  UNL1        0.1035
      7 C         141.2594  141.7988  160.0445 C.3     1  UNL1        0.1470
      8 C         141.9233  140.4578  159.9411 C.3     1  UNL1        0.1035
      9 O         141.9511  142.9254  160.7533 O.3     1  UNL1       -0.3530
     10 C         143.9428  138.9021  160.4429 C.3     1  UNL1        0.0989
     11 C         143.8255  137.9183  161.5691 C.3     1  UNL1        0.1443
     12 C         138.8847  137.3954  163.3567 C.3     1  UNL1        0.0540
     13 C         140.3511  137.7027  163.2860 C.ar    1  UNL1        0.0801
     14 C         141.1899  138.2595  164.3980 C.ar    1  UNL1        0.0308
     15 C         142.5935  138.4081  163.8902 C.ar    1  UNL1        0.0572
     16 C         143.7630  138.9301  164.6710 C.3     1  UNL1        0.0517
     17 N         142.6222  137.9430  162.4643 N.ar    1  UNL1       -0.2538
     18 N         141.2364  137.5071  162.0910 N.ar    1  UNL1       -0.1739
     19 C         140.6233  145.6076  160.9602 C.3     1  UNL1        0.0913
     20 C         139.7008  145.9014  162.1060 C.3     1  UNL1        0.1087
     21 N         140.1036  145.5399  163.5049 N.3     1  UNL1       -0.1780
     22 H         139.7245  146.2628  164.1166 H       1  UNL1        0.1488
     23 S         139.6913  144.2203  164.0867 S.O2    1  UNL1        0.0603
     24 O         138.3078  144.4115  163.5398 O.2     1  UNL1       -0.1530
     25 O         141.0749  144.0292  164.6337 O.2     1  UNL1       -0.1530
     26 C         139.2791  142.9007  164.6686 C.ar    1  UNL1        0.1220
     27 C         139.9736  142.3684  165.8870 C.ar    1  UNL1        0.0206
     28 C         139.5614  141.0488  166.4689 C.ar    1  UNL1        0.0116
     29 C         138.4546  140.2614  165.8324 C.ar    1  UNL1        0.0685
     30 C         137.7601  140.7937  164.6141 C.ar    1  UNL1        0.0116
     31 C         138.1723  142.1133  164.0322 C.ar    1  UNL1        0.0206
     32 C         138.0424  138.9417  166.4143 C.1     1  UNL1        0.1004
     33 N         137.6301  137.6222  166.9963 N.1     1  UNL1       -0.1908
@<TRIPOS>BOND
     1    12    13    1
     2    13    14   ar
     3    14    15   ar
     4    15    16    1
     5    15    17   ar
     6    17    11    1
     7    11    10    1
     8    10     1    1
     9     1     2    1
    10     2     3    1
    11     3     4    1
    12     4     5    1
    13     5    19    1
    14    19    20    1
    15    20    21    1
    16    21    23    1
    17    23    24    2
    18    23    25    2
    19    23    26    1
    20    26    27   ar
    21    27    28   ar
    22    28    29   ar
    23    29    32    1
    24    32    33    3
    25    29    30   ar
    26    30    31   ar
    27     5     6    1
    28     6     7    1
    29     7     8    1
    30     7     9    1
    31    17    18   ar
    32    18    13   ar
    33     8     1    1
    34     9     3    1
    35    31    26   ar
    36    21    22    1
@<TRIPOS>MOLECULE
*****
 33 36 0 0 0
SMALL
GASTEIGER

@<TRIPOS>ATOM
      1 N         142.2122  139.7551  159.7457 N.3     1  UNL1       -0.2668
      2 C         143.2039  140.8792  159.7969 C.3     1  UNL1        0.1035
      3 C         142.7288  142.2910  159.9732 C.3     1  UNL1        0.1470
      4 C         142.2538  143.7029  160.1495 C.3     1  UNL1        0.1035
      5 N         140.7869  143.9905  160.2746 N.3     1  UNL1       -0.2673
      6 C         139.7952  142.8663  160.2233 C.3     1  UNL1        0.1035
      7 C         140.2702  141.4545  160.0470 C.3     1  UNL1        0.1470
      8 C         140.7453  140.0427  159.8707 C.3     1  UNL1        0.1035
      9 O         141.2620  142.5786  160.0983 O.3     1  UNL1       -0.3530
     10 C         142.6872  138.3432  159.5693 C.3     1  UNL1        0.0989
     11 C         143.0127  137.5059  160.7705 C.3     1  UNL1        0.1443
     12 C         139.4846  137.5850  164.6982 C.3     1  UNL1        0.0540
     13 C         140.7251  137.8250  163.8900 C.ar    1  UNL1        0.0801
     14 C         141.9194  138.6224  164.3236 C.ar    1  UNL1        0.0308
     15 C         142.9217  138.5999  163.2077 C.ar    1  UNL1        0.0572
     16 C         144.2633  139.2709  163.2140 C.3     1  UNL1        0.0517
     17 N         142.3468  137.7886  162.0846 N.ar    1  UNL1       -0.2538
     18 N         140.9893  137.3097  162.5063 N.ar    1  UNL1       -0.1739
     19 C         140.3119  145.4023  160.4509 C.3     1  UNL1        0.0913
     20 C         139.9220  145.8980  161.8119 C.3     1  UNL1        0.1087
     21 N         140.9661  146.0701  162.8750 N.3     1  UNL1       -0.1780
     22 H         140.6655  146.8501  163.4594 H       1  UNL1        0.1488
     23 S         141.2883  144.9346  163.8005 S.O2    1  UNL1        0.0603
     24 O         142.7377  145.0440  163.4300 O.2     1  UNL1       -0.1530
     25 O         139.8390  144.8252  164.1709 O.2     1  UNL1       -0.1530
     26 C         141.6106  143.7990  164.7261 C.ar    1  UNL1        0.1220
     27 C         143.0145  143.2781  164.8137 C.ar    1  UNL1        0.0206
     28 C         143.3368  142.1425  165.7392 C.ar    1  UNL1        0.0116
     29 C         142.2551  141.5279  166.5771 C.ar    1  UNL1        0.0685
     30 C         140.8512  142.0488  166.4895 C.ar    1  UNL1        0.0116
     31 C         140.5289  143.1843  165.5640 C.ar    1  UNL1        0.0206
     32 C         142.5773  140.3923  167.5027 C.1     1  UNL1        0.1004
     33 N         142.8995  139.2567  168.4283 N.1     1  UNL1       -0.1908
@<TRIPOS>BOND
     1    12    13    1
     2    13    14   ar
     3    14    15   ar
     4    15    16    1
     5    15    17   ar
     6    17    11    1
     7    11    10    1
     8    10     1    1
     9     1     2    1
    10     2     3    1
    11     3     4    1
    12     4     5    1
    13     5    19    1
    14    19    20    1
    15    20    21    1
    16    21    23    1
    17    23    24    2
    18    23    25    2
    19    23    26    1
    20    26    27   ar
    21    27    28   ar
    22    28    29   ar
    23    29    32    1
    24    32    33    3
    25    29    30   ar
    26    30    31   ar
    27     5     6    1
    28     6     7    1
    29     7     8    1
    30     7     9    1
    31    17    18   ar
    32    18    13   ar
    33     8     1    1
    34     9     3    1
    35    31    26   ar
    36    21    22    1
@<TRIPOS>MOLECULE
*****
 33 36 0 0 0
SMALL
GASTEIGER

@<TRIPOS>ATOM
      1 N         141.5009  144.8836  162.5212 N.3     1  UNL1       -0.2668
      2 C         142.1609  144.9206  163.8676 C.3     1  UNL1        0.1035
      3 C         143.1117  143.8313  164.2669 C.3     1  UNL1        0.1470
      4 C         144.0626  142.7421  164.6663 C.3     1  UNL1        0.1035
      5 N         144.3533  141.6158  163.7192 N.3     1  UNL1       -0.2673
      6 C         143.6932  141.5788  162.3727 C.3     1  UNL1        0.1035
      7 C         142.7424  142.6681  161.9734 C.3     1  UNL1        0.1470
      8 C         141.7916  143.7573  161.5741 C.3     1  UNL1        0.1035
      9 O         143.4024  142.7051  163.3198 O.3     1  UNL1       -0.3530
     10 C         140.5500  145.9729  162.1218 C.3     1  UNL1        0.0989
     11 C         139.0719  145.7741  162.2817 C.3     1  UNL1        0.1443
     12 C         137.2025  140.8367  162.3704 C.3     1  UNL1        0.0540
     13 C         137.6811  142.1889  162.8089 C.ar    1  UNL1        0.0801
     14 C         137.7638  142.6787  164.2243 C.ar    1  UNL1        0.0308
     15 C         138.2949  144.0814  164.1991 C.ar    1  UNL1        0.0572
     16 C         138.5378  144.9538  165.3949 C.3     1  UNL1        0.0517
     17 N         138.5404  144.4584  162.7681 N.ar    1  UNL1       -0.2538
     18 N         138.1610  143.2888  161.9089 N.ar    1  UNL1       -0.1739
     19 C         145.3041  140.5266  164.1185 C.3     1  UNL1        0.0913
     20 C         144.8888  139.0896  164.0049 C.3     1  UNL1        0.1087
     21 N         143.5643  138.6462  164.5516 N.3     1  UNL1       -0.1780
     22 H         143.6299  137.6395  164.7020 H       1  UNL1        0.1488
     23 S         143.0417  139.2412  165.8255 S.O2    1  UNL1        0.0603
     24 O         142.0100  140.0022  165.0468 O.2     1  UNL1       -0.1530
     25 O         144.0733  138.4801  166.6042 O.2     1  UNL1       -0.1530
     26 C         142.5191  139.8361  167.0995 C.ar    1  UNL1        0.1220
     27 C         141.6948  141.0887  167.0594 C.ar    1  UNL1        0.0206
     28 C         141.1722  141.6837  168.3333 C.ar    1  UNL1        0.0116
     29 C         141.4738  141.0261  169.6473 C.ar    1  UNL1        0.0685
     30 C         142.2981  139.7735  169.6873 C.ar    1  UNL1        0.0116
     31 C         142.8207  139.1785  168.4134 C.ar    1  UNL1        0.0206
     32 C         140.9512  141.6210  170.9212 C.1     1  UNL1        0.1004
     33 N         140.4287  142.2160  172.1952 N.1     1  UNL1       -0.1908
@<TRIPOS>BOND
     1    12    13    1
     2    13    14   ar
     3    14    15   ar
     4    15    16    1
     5    15    17   ar
     6    17    11    1
     7    11    10    1
     8    10     1    1
     9     1     2    1
    10     2     3    1
    11     3     4    1
    12     4     5    1
    13     5    19    1
    14    19    20    1
    15    20    21    1
    16    21    23    1
    17    23    24    2
    18    23    25    2
    19    23    26    1
    20    26    27   ar
    21    27    28   ar
    22    28    29   ar
    23    29    32    1
    24    32    33    3
    25    29    30   ar
    26    30    31   ar
    27     5     6    1
    28     6     7    1
    29     7     8    1
    30     7     9    1
    31    17    18   ar
    32    18    13   ar
    33     8     1    1
    34     9     3    1
    35    31    26   ar
    36    21    22    1
@<TRIPOS>MOLECULE
*****
 33 36 0 0 0
SMALL
GASTEIGER

@<TRIPOS>ATOM
      1 N         139.8896  142.5790  159.8212 N.3     1  UNL1       -0.2668
      2 C         140.8603  141.4375  159.8885 C.3     1  UNL1        0.1035
      3 C         140.5494  140.2374  160.7330 C.3     1  UNL1        0.1470
      4 C         140.2385  139.0373  161.5775 C.3     1  UNL1        0.1035
      5 N         138.9568  138.9789  162.3547 N.3     1  UNL1       -0.2673
      6 C         137.9861  140.1205  162.2874 C.3     1  UNL1        0.1035
      7 C         138.2970  141.3205  161.4428 C.3     1  UNL1        0.1470
      8 C         138.6080  142.5205  160.5983 C.3     1  UNL1        0.1035
      9 O         139.2677  140.1790  161.5102 O.3     1  UNL1       -0.3530
     10 C         140.2005  143.7791  158.9766 C.3     1  UNL1        0.0989
     11 C         141.0471  144.8867  159.5301 C.3     1  UNL1        0.1443
     12 C         143.9867  143.9645  163.8183 C.3     1  UNL1        0.0540
     13 C         142.8666  144.4090  162.9253 C.ar    1  UNL1        0.0801
     14 C         141.6053  145.0912  163.3658 C.ar    1  UNL1        0.0308
     15 C         140.7702  145.3532  162.1475 C.ar    1  UNL1        0.0572
     16 C         139.4260  146.0185  162.1264 C.3     1  UNL1        0.0517
     17 N         141.5154  144.8329  160.9542 N.ar    1  UNL1       -0.2538
     18 N         142.8109  144.2494  161.4348 N.ar    1  UNL1       -0.1739
     19 C         138.6459  137.7789  163.1992 C.3     1  UNL1        0.0913
     20 C         138.9220  137.8072  164.6734 C.3     1  UNL1        0.1087
     21 N         138.2740  138.8477  165.5379 N.3     1  UNL1       -0.1780
     22 H         137.5944  138.3623  166.1235 H       1  UNL1        0.1488
     23 S         139.1118  139.6896  166.4539 S.O2    1  UNL1        0.0603
     24 O         139.6578  140.4331  165.2711 O.2     1  UNL1       -0.1530
     25 O         138.5659  138.9461  167.6367 O.2     1  UNL1       -0.1530
     26 C         139.9497  140.5316  167.3700 C.ar    1  UNL1        0.1220
     27 C         141.1581  141.2437  166.8383 C.ar    1  UNL1        0.0206
     28 C         141.9960  142.0856  167.7542 C.ar    1  UNL1        0.0116
     29 C         141.6255  142.2154  169.2019 C.ar    1  UNL1        0.0685
     30 C         140.4171  141.5034  169.7336 C.ar    1  UNL1        0.0116
     31 C         139.5792  140.6614  168.8176 C.ar    1  UNL1        0.0206
     32 C         142.4634  143.0574  170.1180 C.1     1  UNL1        0.1004
     33 N         143.3013  143.8993  171.0340 N.1     1  UNL1       -0.1908
@<TRIPOS>BOND
     1    12    13    1
     2    13    14   ar
     3    14    15   ar
     4    15    16    1
     5    15    17   ar
     6    17    11    1
     7    11    10    1
     8    10     1    1
     9     1     2    1
    10     2     3    1
    11     3     4    1
    12     4     5    1
    13     5    19    1
    14    19    20    1
    15    20    21    1
    16    21    23    1
    17    23    24    2
    18    23    25    2
    19    23    26    1
    20    26    27   ar
    21    27    28   ar
    22    28    29   ar
    23    29    32    1
    24    32    33    3
    25    29    30   ar
    26    30    31   ar
    27     5     6    1
    28     6     7    1
    29     7     8    1
    30     7     9    1
    31    17    18   ar
    32    18    13   ar
    33     8     1    1
    34     9     3    1
    35    31    26   ar
    36    21    22    1
@<TRIPOS>MOLECULE
*****
 33 36 0 0 0
SMALL
GASTEIGER

@<TRIPOS>ATOM
      1 N         144.6190  141.5660  163.4880 N.3     1  UNL1       -0.2668
      2 C         144.0158  142.6628  164.3145 C.3     1  UNL1        0.1035
      3 C         143.0719  143.6438  163.6847 C.3     1  UNL1        0.1470
      4 C         142.1280  144.6250  163.0550 C.3     1  UNL1        0.1035
      5 N         141.7874  144.5092  161.5987 N.3     1  UNL1       -0.2673
      6 C         142.3907  143.4123  160.7723 C.3     1  UNL1        0.1035
      7 C         143.3346  142.4313  161.4020 C.3     1  UNL1        0.1470
      8 C         144.2784  141.4503  162.0318 C.3     1  UNL1        0.1035
      9 O         142.7313  143.5281  162.2285 O.3     1  UNL1       -0.3530
     10 C         145.5629  140.5849  164.1177 C.3     1  UNL1        0.0989
     11 C         145.1280  139.1681  164.3488 C.3     1  UNL1        0.1443
     12 C         140.3433  137.8046  162.5802 C.3     1  UNL1        0.0540
     13 C         141.4717  138.1873  163.4912 C.ar    1  UNL1        0.0801
     14 C         141.3863  138.3511  164.9799 C.ar    1  UNL1        0.0308
     15 C         142.7456  138.7384  165.4823 C.ar    1  UNL1        0.0572
     16 C         143.1146  139.0036  166.9118 C.3     1  UNL1        0.0517
     17 N         143.6710  138.8140  164.3042 N.ar    1  UNL1       -0.2538
     18 N         142.8837  138.4734  163.0737 N.ar    1  UNL1       -0.1739
     19 C         140.8435  145.4903  160.9690 C.3     1  UNL1        0.0913
     20 C         139.8436  146.2192  161.8168 C.3     1  UNL1        0.1087
     21 N         138.5110  145.5954  162.1085 N.3     1  UNL1       -0.1780
     22 H         138.0412  145.4717  161.2116 H       1  UNL1        0.1488
     23 S         138.4398  144.2769  162.8201 S.O2    1  UNL1        0.0603
     24 O         137.9961  143.6150  161.5493 O.2     1  UNL1       -0.1530
     25 O         138.8836  144.9388  164.0909 O.2     1  UNL1       -0.1530
     26 C         138.3686  142.9584  163.5318 C.ar    1  UNL1        0.1220
     27 C         139.0641  142.7784  164.8485 C.ar    1  UNL1        0.0206
     28 C         138.9930  141.4599  165.5602 C.ar    1  UNL1        0.0116
     29 C         138.2263  140.3215  164.9552 C.ar    1  UNL1        0.0685
     30 C         137.5308  140.5015  163.6384 C.ar    1  UNL1        0.0116
     31 C         137.6020  141.8200  162.9267 C.ar    1  UNL1        0.0206
     32 C         138.1551  139.0029  165.6669 C.1     1  UNL1        0.1004
     33 N         138.0840  137.6844  166.3785 N.1     1  UNL1       -0.1908
@<TRIPOS>BOND
     1    12    13    1
     2    13    14   ar
     3    14    15   ar
     4    15    16    1
     5    15    17   ar
     6    17    11    1
     7    11    10    1
     8    10     1    1
     9     1     2    1
    10     2     3    1
    11     3     4    1
    12     4     5    1
    13     5    19    1
    14    19    20    1
    15    20    21    1
    16    21    23    1
    17    23    24    2
    18    23    25    2
    19    23    26    1
    20    26    27   ar
    21    27    28   ar
    22    28    29   ar
    23    29    32    1
    24    32    33    3
    25    29    30   ar
    26    30    31   ar
    27     5     6    1
    28     6     7    1
    29     7     8    1
    30     7     9    1
    31    17    18   ar
    32    18    13   ar
    33     8     1    1
    34     9     3    1
    35    31    26   ar
    36    21    22    1
@<TRIPOS>MOLECULE
*****
 33 36 0 0 0
SMALL
GASTEIGER

@<TRIPOS>ATOM
      1 N         141.6188  139.7275  159.6127 N.3     1  UNL1       -0.2668
      2 C         142.5482  140.8235  159.1825 C.3     1  UNL1        0.1035
      3 C         142.1762  142.2575  159.4173 C.3     1  UNL1        0.1470
      4 C         141.8043  143.6916  159.6522 C.3     1  UNL1        0.1035
      5 N         140.5030  144.0297  160.3172 N.3     1  UNL1       -0.2673
      6 C         139.5736  142.9336  160.7474 C.3     1  UNL1        0.1035
      7 C         139.9456  141.4996  160.5126 C.3     1  UNL1        0.1470
      8 C         140.3175  140.0656  160.2777 C.3     1  UNL1        0.1035
      9 O         140.8749  142.5956  160.0824 O.3     1  UNL1       -0.3530
     10 C         141.9907  138.2934  159.3778 C.3     1  UNL1        0.0989
     11 C         142.7690  137.5408  160.4160 C.3     1  UNL1        0.1443
     12 C         145.3443  140.4778  163.9687 C.3     1  UNL1        0.0540
     13 C         144.3386  139.5650  163.3322 C.ar    1  UNL1        0.0801
     14 C         143.1586  138.9399  164.0155 C.ar    1  UNL1        0.0308
     15 C         142.4269  138.1055  163.0062 C.ar    1  UNL1        0.0572
     16 C         141.1854  137.3027  163.2595 C.3     1  UNL1        0.0517
     17 N         143.1548  138.2150  161.6992 N.ar    1  UNL1       -0.2538
     18 N         144.3363  139.1170  161.9007 N.ar    1  UNL1       -0.1739
     19 C         140.1311  145.4637  160.5521 C.3     1  UNL1        0.0913
     20 C         139.9595  145.9745  161.9520 C.3     1  UNL1        0.1087
     21 N         141.1398  146.0434  162.8751 N.3     1  UNL1       -0.1780
     22 H         141.0180  146.8792  163.4469 H       1  UNL1        0.1488
     23 S         141.4217  144.9112  163.8178 S.O2    1  UNL1        0.0603
     24 O         139.9486  144.6820  163.9830 O.2     1  UNL1       -0.1530
     25 O         142.8948  145.1404  163.6525 O.2     1  UNL1       -0.1530
     26 C         141.7037  143.7789  164.7605 C.ar    1  UNL1        0.1220
     27 C         140.5688  143.0192  165.3808 C.ar    1  UNL1        0.0206
     28 C         140.8508  141.8870  166.3234 C.ar    1  UNL1        0.0116
     29 C         142.2676  141.5146  166.6457 C.ar    1  UNL1        0.0685
     30 C         143.4024  142.2743  166.0254 C.ar    1  UNL1        0.0116
     31 C         143.1205  143.4065  165.0827 C.ar    1  UNL1        0.0206
     32 C         142.5496  140.3823  167.5884 C.1     1  UNL1        0.1004
     33 N         142.8315  139.2501  168.5310 N.1     1  UNL1       -0.1908
@<TRIPOS>BOND
     1    12    13    1
     2    13    14   ar
     3    14    15   ar
     4    15    16    1
     5    15    17   ar
     6    17    11    1
     7    11    10    1
     8    10     1    1
     9     1     2    1
    10     2     3    1
    11     3     4    1
    12     4     5    1
    13     5    19    1
    14    19    20    1
    15    20    21    1
    16    21    23    1
    17    23    24    2
    18    23    25    2
    19    23    26    1
    20    26    27   ar
    21    27    28   ar
    22    28    29   ar
    23    29    32    1
    24    32    33    3
    25    29    30   ar
    26    30    31   ar
    27     5     6    1
    28     6     7    1
    29     7     8    1
    30     7     9    1
    31    17    18   ar
    32    18    13   ar
    33     8     1    1
    34     9     3    1
    35    31    26   ar
    36    21    22    1
@<TRIPOS>MOLECULE
*****
 33 36 0 0 0
SMALL
GASTEIGER

@<TRIPOS>ATOM
      1 N         138.4534  142.3865  161.9074 N.3     1  UNL1       -0.2668
      2 C         139.1921  142.9709  160.7401 C.3     1  UNL1        0.1035
      3 C         139.9394  142.0727  159.7996 C.3     1  UNL1        0.1470
      4 C         140.6868  141.1744  158.8591 C.3     1  UNL1        0.1035
      5 N         140.6954  139.6916  159.0859 N.3     1  UNL1       -0.2673
      6 C         139.9566  139.1072  160.2533 C.3     1  UNL1        0.1035
      7 C         139.2093  140.0055  161.1938 C.3     1  UNL1        0.1470
      8 C         138.4620  140.9038  162.1342 C.3     1  UNL1        0.1035
      9 O         139.9480  140.5899  160.0265 O.3     1  UNL1       -0.3530
     10 C         137.7060  143.2848  162.8480 C.3     1  UNL1        0.0989
     11 C         138.3144  143.6636  164.1657 C.3     1  UNL1        0.1443
     12 C         143.4296  144.9615  163.9921 C.3     1  UNL1        0.0540
     13 C         142.1545  144.2199  164.2639 C.ar    1  UNL1        0.0801
     14 C         142.0343  142.9026  164.9713 C.ar    1  UNL1        0.0308
     15 C         140.5810  142.5339  165.0206 C.ar    1  UNL1        0.0572
     16 C         140.0066  141.2935  165.6384 C.3     1  UNL1        0.0517
     17 N         139.8033  143.6233  164.3437 N.ar    1  UNL1       -0.2538
     18 N         140.7757  144.6653  163.8760 N.ar    1  UNL1       -0.1739
     19 C         141.4427  138.7934  158.1454 C.3     1  UNL1        0.0913
     20 C         142.7162  138.1362  158.5887 C.3     1  UNL1        0.1087
     21 N         143.7079  138.9022  159.4130 N.3     1  UNL1       -0.1780
     22 H         143.6657  139.8717  159.0988 H       1  UNL1        0.1488
     23 S         143.5819  138.9257  160.9075 S.O2    1  UNL1        0.0603
     24 O         143.6519  137.4276  160.9369 O.2     1  UNL1       -0.1530
     25 O         143.5119  140.4237  160.8781 O.2     1  UNL1       -0.1530
     26 C         143.4559  138.9492  162.4021 C.ar    1  UNL1        0.1220
     27 C         144.4492  139.7131  163.2266 C.ar    1  UNL1        0.0206
     28 C         144.3232  139.7366  164.7211 C.ar    1  UNL1        0.0116
     29 C         143.2039  138.9962  165.3911 C.ar    1  UNL1        0.0685
     30 C         142.2106  138.2323  164.5666 C.ar    1  UNL1        0.0116
     31 C         142.3366  138.2088  163.0721 C.ar    1  UNL1        0.0206
     32 C         143.0779  139.0197  166.8856 C.1     1  UNL1        0.1004
     33 N         142.9519  139.0432  168.3801 N.1     1  UNL1       -0.1908
@<TRIPOS>BOND
     1    12    13    1
     2    13    14   ar
     3    14    15   ar
     4    15    16    1
     5    15    17   ar
     6    17    11    1
     7    11    10    1
     8    10     1    1
     9     1     2    1
    10     2     3    1
    11     3     4    1
    12     4     5    1
    13     5    19    1
    14    19    20    1
    15    20    21    1
    16    21    23    1
    17    23    24    2
    18    23    25    2
    19    23    26    1
    20    26    27   ar
    21    27    28   ar
    22    28    29   ar
    23    29    32    1
    24    32    33    3
    25    29    30   ar
    26    30    31   ar
    27     5     6    1
    28     6     7    1
    29     7     8    1
    30     7     9    1
    31    17    18   ar
    32    18    13   ar
    33     8     1    1
    34     9     3    1
    35    31    26   ar
    36    21    22    1
@<TRIPOS>MOLECULE
*****
 33 36 0 0 0
SMALL
GASTEIGER

@<TRIPOS>ATOM
      1 N         140.9450  144.0367  159.8875 N.3     1  UNL1       -0.2668
      2 C         142.4111  143.8362  160.1329 C.3     1  UNL1        0.1035
      3 C         142.9945  142.4546  160.1027 C.3     1  UNL1        0.1470
      4 C         143.5779  141.0730  160.0726 C.3     1  UNL1        0.1035
      5 N         142.6952  139.8920  159.7970 N.3     1  UNL1       -0.2673
      6 C         141.2290  140.0926  159.5516 C.3     1  UNL1        0.1035
      7 C         140.6456  141.4741  159.5818 C.3     1  UNL1        0.1470
      8 C         140.0622  142.8557  159.6120 C.3     1  UNL1        0.1035
      9 O         142.1117  141.2736  159.8272 O.3     1  UNL1       -0.3530
     10 C         140.3615  145.4183  159.9177 C.3     1  UNL1        0.0989
     11 C         139.9152  146.0157  161.2192 C.3     1  UNL1        0.1443
     12 C         137.5234  142.7137  164.5742 C.3     1  UNL1        0.0540
     13 C         138.5447  143.6106  163.9400 C.ar    1  UNL1        0.0801
     14 C         139.9092  143.9156  164.4834 C.ar    1  UNL1        0.0308
     15 C         140.5887  144.8537  163.5302 C.ar    1  UNL1        0.0572
     16 C         141.9701  145.4178  163.6828 C.3     1  UNL1        0.0517
     17 N         139.6441  145.1284  162.3979 N.ar    1  UNL1       -0.2538
     18 N         138.3808  144.3602  162.6511 N.ar    1  UNL1       -0.1739
     19 C         143.2785  138.5105  159.7668 C.3     1  UNL1        0.0913
     20 C         143.3248  137.6883  161.0206 C.3     1  UNL1        0.1087
     21 N         142.0504  137.2151  161.6547 N.3     1  UNL1       -0.1780
     22 H         142.1520  136.2116  161.8066 H       1  UNL1        0.1488
     23 S         141.5958  137.8063  162.9562 S.O2    1  UNL1        0.0603
     24 O         140.2156  137.2694  162.7178 O.2     1  UNL1       -0.1530
     25 O         142.9760  138.3431  163.1945 O.2     1  UNL1       -0.1530
     26 C         141.1412  138.3974  164.2577 C.ar    1  UNL1        0.1220
     27 C         142.1489  138.9364  165.2292 C.ar    1  UNL1        0.0206
     28 C         141.6944  139.5276  166.5307 C.ar    1  UNL1        0.0116
     29 C         140.2321  139.5797  166.8606 C.ar    1  UNL1        0.0685
     30 C         139.2243  139.0407  165.8891 C.ar    1  UNL1        0.0116
     31 C         139.6789  138.4496  164.5876 C.ar    1  UNL1        0.0206
     32 C         139.7774  140.1709  168.1622 C.1     1  UNL1        0.1004
     33 N         139.3229  140.7620  169.4637 N.1     1  UNL1       -0.1908
@<TRIPOS>BOND
     1    12    13    1
     2    13    14   ar
     3    14    15   ar
     4    15    16    1
     5    15    17   ar
     6    17    11    1
     7    11    10    1
     8    10     1    1
     9     1     2    1
    10     2     3    1
    11     3     4    1
    12     4     5    1
    13     5    19    1
    14    19    20    1
    15    20    21    1
    16    21    23    1
    17    23    24    2
    18    23    25    2
    19    23    26    1
    20    26    27   ar
    21    27    28   ar
    22    28    29   ar
    23    29    32    1
    24    32    33    3
    25    29    30   ar
    26    30    31   ar
    27     5     6    1
    28     6     7    1
    29     7     8    1
    30     7     9    1
    31    17    18   ar
    32    18    13   ar
    33     8     1    1
    34     9     3    1
    35    31    26   ar
    36    21    22    1
@<TRIPOS>MOLECULE
*****
 33 36 0 0 0
SMALL
GASTEIGER

@<TRIPOS>ATOM
      1 N         139.2960  137.5862  164.2089 N.3     1  UNL1       -0.2668
      2 C         138.6415  138.0817  162.9535 C.3     1  UNL1        0.1035
      3 C         139.4665  138.3315  161.7260 C.3     1  UNL1        0.1470
      4 C         140.2915  138.5814  160.4983 C.3     1  UNL1        0.1035
      5 N         141.7710  138.3358  160.5262 N.3     1  UNL1       -0.2673
      6 C         142.4255  137.8403  161.7817 C.3     1  UNL1        0.1035
      7 C         141.6005  137.5904  163.0092 C.3     1  UNL1        0.1470
      8 C         140.7755  137.3406  164.2367 C.3     1  UNL1        0.1035
      9 O         140.9460  138.0859  161.7538 O.3     1  UNL1       -0.3530
     10 C         138.4710  137.3363  165.4365 C.3     1  UNL1        0.0989
     11 C         138.0796  138.4813  166.3230 C.3     1  UNL1        0.1443
     12 C         138.5995  143.2548  164.1266 C.3     1  UNL1        0.0540
     13 C         138.8081  142.0604  165.0097 C.ar    1  UNL1        0.0801
     14 C         139.8367  141.9347  166.0943 C.ar    1  UNL1        0.0308
     15 C         139.6890  140.5786  166.7183 C.ar    1  UNL1        0.0572
     16 C         140.5160  140.0310  167.8436 C.3     1  UNL1        0.0517
     17 N         138.5691  139.8663  166.0193 N.ar    1  UNL1       -0.2538
     18 N         138.0247  140.7821  164.9634 N.ar    1  UNL1       -0.1739
     19 C         142.5960  138.5856  159.2986 C.3     1  UNL1        0.0913
     20 C         143.6401  139.6627  159.3031 C.3     1  UNL1        0.1087
     21 N         143.3042  141.0307  159.8185 N.3     1  UNL1       -0.1780
     22 H         142.3638  141.2471  159.4883 H       1  UNL1        0.1488
     23 S         143.3178  141.3003  161.2940 S.O2    1  UNL1        0.0603
     24 O         144.6263  140.5771  161.4142 O.2     1  UNL1       -0.1530
     25 O         142.0092  142.0236  161.1738 O.2     1  UNL1       -0.1530
     26 C         143.3312  141.5700  162.7696 C.ar    1  UNL1        0.1220
     27 C         143.8192  140.5171  163.7200 C.ar    1  UNL1        0.0206
     28 C         143.8327  140.7867  165.1954 C.ar    1  UNL1        0.0116
     29 C         143.3582  142.1092  165.7205 C.ar    1  UNL1        0.0685
     30 C         142.8703  143.1622  164.7701 C.ar    1  UNL1        0.0116
     31 C         142.8568  142.8926  163.2946 C.ar    1  UNL1        0.0206
     32 C         143.3717  142.3789  167.1961 C.1     1  UNL1        0.1004
     33 N         143.3852  142.6486  168.6715 N.1     1  UNL1       -0.1908
@<TRIPOS>BOND
     1    12    13    1
     2    13    14   ar
     3    14    15   ar
     4    15    16    1
     5    15    17   ar
     6    17    11    1
     7    11    10    1
     8    10     1    1
     9     1     2    1
    10     2     3    1
    11     3     4    1
    12     4     5    1
    13     5    19    1
    14    19    20    1
    15    20    21    1
    16    21    23    1
    17    23    24    2
    18    23    25    2
    19    23    26    1
    20    26    27   ar
    21    27    28   ar
    22    28    29   ar
    23    29    32    1
    24    32    33    3
    25    29    30   ar
    26    30    31   ar
    27     5     6    1
    28     6     7    1
    29     7     8    1
    30     7     9    1
    31    17    18   ar
    32    18    13   ar
    33     8     1    1
    34     9     3    1
    35    31    26   ar
    36    21    22    1
