@<TRIPOS>MOLECULE
*****
 32 35 0 0 0
SMALL
GASTEIGER

@<TRIPOS>ATOM
      1 N         143.4573  138.5413  167.2076 N.pl3   1  UNL1       -0.2820
      2 H         144.0258  137.8882  167.6760 H       1  UNL1        0.1551
      3 C         142.2624  137.9658  163.4671 C.ar    1  UNL1        0.0491
      4 C         142.2908  137.9354  164.9665 C.ar    1  UNL1        0.0487
      5 C         143.4289  138.5717  165.7081 C.ar    1  UNL1        0.1345
      6 N         144.5385  139.2384  164.9503 N.ar    1  UNL1       -0.2290
      7 C         144.5100  139.2687  163.4509 C.ar    1  UNL1        0.1016
      8 C         143.3720  138.6324  162.7093 C.ar    1  UNL1        0.0354
      9 C         143.3436  138.6628  161.2098 C.ar    1  UNL1        0.0423
     10 C         143.7791  139.8067  160.3428 C.ar    1  UNL1        0.1217
     11 N         143.5794  139.4055  158.9113 N.ar    1  UNL1       -0.1676
     12 N         143.0204  138.0136  158.8937 N.ar    1  UNL1       -0.2473
     13 C         142.6689  137.2200  157.6703 C.3     1  UNL1        0.1538
     14 C         142.8747  137.5546  160.3143 C.ar    1  UNL1        0.0968
     15 C         139.7094  137.6255  163.1258 C.3     1  UNL1        0.1085
     16 N         141.1243  137.3295  162.7255 N.pl3   1  UNL1       -0.3312
     17 H         141.3061  136.7176  161.9760 H       1  UNL1        0.1469
     18 C         142.6193  139.5060  167.9933 C.ar    1  UNL1        0.1558
     19 C         142.3909  139.2804  169.4586 C.ar    1  UNL1        0.1342
     20 N         141.5530  140.2450  170.2442 N.ar    1  UNL1       -0.2263
     21 C         140.9435  141.4353  169.5646 C.ar    1  UNL1        0.2025
     22 C         141.1719  141.6609  168.0994 C.ar    1  UNL1        0.2543
     23 N         142.0098  140.6962  167.3137 N.ar    1  UNL1       -0.1931
     24 C         140.1055  142.4000  170.3503 C.1     1  UNL1        0.1246
     25 N         139.2676  143.3646  171.1360 N.1     1  UNL1       -0.1891
     26 O         140.5624  142.8512  167.4198 O.3     1  UNL1       -0.4610
     27 C         140.0334  142.7272  166.0217 C.3     1  UNL1        0.1849
     28 C         140.3350  143.6517  164.8796 C.3     1  UNL1        0.0623
     29 C         139.5979  143.1528  163.6723 C.3     1  UNL1        0.0760
     30 N         138.8407  141.9199  164.0681 N.3     1  UNL1       -0.2684
     31 C         137.9677  141.0949  163.1697 C.3     1  UNL1        0.0897
     32 C         139.1099  141.6569  165.5201 C.3     1  UNL1        0.1163
@<TRIPOS>BOND
     1    15    16    1
     2    16     3    1
     3     3     4   ar
     4     4     5   ar
     5     5     1    1
     6     1    18    1
     7    18    19   ar
     8    19    20   ar
     9    20    21   ar
    10    21    24    1
    11    24    25    3
    12    21    22   ar
    13    22    26    1
    14    27    26    1
    15    27    28    1
    16    28    29    1
    17    29    30    1
    18    30    31    1
    19    30    32    1
    20    22    23   ar
    21     5     6   ar
    22     6     7   ar
    23     7     8   ar
    24     8     9    1
    25     9    10   ar
    26    10    11   ar
    27    11    12   ar
    28    12    13    1
    29    12    14   ar
    30     8     3   ar
    31    14     9   ar
    32    23    18   ar
    33    32    27    1
    34    16    17    1
    35     1     2    1
@<TRIPOS>MOLECULE
*****
 32 35 0 0 0
SMALL
GASTEIGER

@<TRIPOS>ATOM
      1 N         138.5415  138.9962  159.4766 N.pl3   1  UNL1       -0.2820
      2 H         137.6965  139.1672  159.0012 H       1  UNL1        0.1551
      3 C         137.9217  140.2364  163.1952 C.ar    1  UNL1        0.0491
      4 C         137.8771  140.1697  161.6974 C.ar    1  UNL1        0.0487
      5 C         138.5861  139.0629  160.9745 C.ar    1  UNL1        0.1345
      6 N         139.3396  138.0229  161.7495 N.ar    1  UNL1       -0.2290
      7 C         139.3842  138.0897  163.2473 C.ar    1  UNL1        0.1016
      8 C         138.6752  139.1964  163.9701 C.ar    1  UNL1        0.0354
      9 C         138.7198  139.2631  165.4681 C.ar    1  UNL1        0.0423
     10 C         137.8156  138.5258  166.4108 C.ar    1  UNL1        0.1217
     11 N         138.2134  138.8859  167.8115 N.ar    1  UNL1       -0.1676
     12 N         139.3636  139.8457  167.7345 N.ar    1  UNL1       -0.2473
     13 C         140.0757  140.4639  168.9010 C.3     1  UNL1        0.1538
     14 C         139.6765  140.0789  166.2862 C.ar    1  UNL1        0.0968
     15 C         137.8990  142.6597  164.1317 C.3     1  UNL1        0.1085
     16 N         137.2127  141.3431  163.9181 N.pl3   1  UNL1       -0.3312
     17 H         136.2970  141.2054  164.2523 H       1  UNL1        0.1469
     18 C         139.7843  138.6690  158.7031 C.ar    1  UNL1        0.1558
     19 C         139.6785  138.0660  157.3337 C.ar    1  UNL1        0.1342
     20 N         140.9213  137.7389  156.5602 N.ar    1  UNL1       -0.2263
     21 C         142.2700  138.0147  157.1561 C.ar    1  UNL1        0.2025
     22 C         142.3758  138.6176  158.5255 C.ar    1  UNL1        0.2543
     23 N         141.1329  138.9448  159.2990 N.ar    1  UNL1       -0.1931
     24 C         143.5128  137.6875  156.3827 C.1     1  UNL1        0.1246
     25 N         144.7557  137.3603  155.6092 N.1     1  UNL1       -0.1891
     26 O         143.7245  138.8934  159.1215 O.3     1  UNL1       -0.4610
     27 C         143.8544  139.1600  160.5918 C.3     1  UNL1        0.1849
     28 C         143.7970  138.1321  161.6827 C.3     1  UNL1        0.0623
     29 C         143.9717  138.8381  162.9946 C.3     1  UNL1        0.0760
     30 N         144.1371  140.3024  162.7144 N.3     1  UNL1       -0.2684
     31 C         144.3394  141.3788  163.7393 C.3     1  UNL1        0.0897
     32 C         144.0646  140.5014  161.2294 C.3     1  UNL1        0.1163
@<TRIPOS>BOND
     1    15    16    1
     2    16     3    1
     3     3     4   ar
     4     4     5   ar
     5     5     1    1
     6     1    18    1
     7    18    19   ar
     8    19    20   ar
     9    20    21   ar
    10    21    24    1
    11    24    25    3
    12    21    22   ar
    13    22    26    1
    14    27    26    1
    15    27    28    1
    16    28    29    1
    17    29    30    1
    18    30    31    1
    19    30    32    1
    20    22    23   ar
    21     5     6   ar
    22     6     7   ar
    23     7     8   ar
    24     8     9    1
    25     9    10   ar
    26    10    11   ar
    27    11    12   ar
    28    12    13    1
    29    12    14   ar
    30     8     3   ar
    31    14     9   ar
    32    23    18   ar
    33    32    27    1
    34    16    17    1
    35     1     2    1
@<TRIPOS>MOLECULE
*****
 32 35 0 0 0
SMALL
GASTEIGER

@<TRIPOS>ATOM
      1 N         143.3236  138.6435  167.1265 N.pl3   1  UNL1       -0.2820
      2 H         144.0052  138.0795  167.5585 H       1  UNL1        0.1551
      3 C         143.8320  139.1610  163.2247 C.ar    1  UNL1        0.0491
      4 C         144.0491  139.2489  164.7063 C.ar    1  UNL1        0.0487
      5 C         143.1065  138.5555  165.6449 C.ar    1  UNL1        0.1345
      6 N         141.9470  137.7742  165.1018 N.ar    1  UNL1       -0.2290
      7 C         141.7299  137.6863  163.6203 C.ar    1  UNL1        0.1016
      8 C         142.6725  138.3797  162.6817 C.ar    1  UNL1        0.0354
      9 C         142.4554  138.2917  161.2001 C.ar    1  UNL1        0.0423
     10 C         143.1936  137.3933  160.2526 C.ar    1  UNL1        0.1217
     11 N         142.6564  137.6331  158.8728 N.ar    1  UNL1       -0.1676
     12 N         141.5861  138.6798  158.9675 N.ar    1  UNL1       -0.2473
     13 C         140.7813  139.2238  157.8245 C.3     1  UNL1        0.1538
     14 C         141.4618  139.0868  160.4058 C.ar    1  UNL1        0.0968
     15 C         144.7709  141.3513  162.1897 C.3     1  UNL1        0.1085
     16 N         144.7745  139.8544  162.2862 N.pl3   1  UNL1       -0.3312
     17 H         145.3955  139.3270  161.7335 H       1  UNL1        0.1469
     18 C         142.5023  139.5909  167.9499 C.ar    1  UNL1        0.1558
     19 C         142.3603  139.3714  169.4270 C.ar    1  UNL1        0.1342
     20 N         141.5390  140.3188  170.2504 N.ar    1  UNL1       -0.2263
     21 C         140.8597  141.4856  169.5967 C.ar    1  UNL1        0.2025
     22 C         141.0018  141.7049  168.1197 C.ar    1  UNL1        0.2543
     23 N         141.8231  140.7576  167.2963 N.ar    1  UNL1       -0.1931
     24 C         140.0384  142.4329  170.4201 C.1     1  UNL1        0.1246
     25 N         139.2171  143.3802  171.2435 N.1     1  UNL1       -0.1891
     26 O         140.3225  142.8717  167.4659 O.3     1  UNL1       -0.4610
     27 C         140.2114  142.9339  165.9714 C.3     1  UNL1        0.1849
     28 C         139.0452  142.4637  165.1536 C.3     1  UNL1        0.0623
     29 C         139.3600  142.7165  163.7090 C.3     1  UNL1        0.0760
     30 N         140.7210  143.3429  163.6339 N.3     1  UNL1       -0.2684
     31 C         141.4310  143.7614  162.3807 C.3     1  UNL1        0.0897
     32 C         141.2471  143.4773  165.0322 C.3     1  UNL1        0.1163
@<TRIPOS>BOND
     1    15    16    1
     2    16     3    1
     3     3     4   ar
     4     4     5   ar
     5     5     1    1
     6     1    18    1
     7    18    19   ar
     8    19    20   ar
     9    20    21   ar
    10    21    24    1
    11    24    25    3
    12    21    22   ar
    13    22    26    1
    14    27    26    1
    15    27    28    1
    16    28    29    1
    17    29    30    1
    18    30    31    1
    19    30    32    1
    20    22    23   ar
    21     5     6   ar
    22     6     7   ar
    23     7     8   ar
    24     8     9    1
    25     9    10   ar
    26    10    11   ar
    27    11    12   ar
    28    12    13    1
    29    12    14   ar
    30     8     3   ar
    31    14     9   ar
    32    23    18   ar
    33    32    27    1
    34    16    17    1
    35     1     2    1
@<TRIPOS>MOLECULE
*****
 32 35 0 0 0
SMALL
GASTEIGER

@<TRIPOS>ATOM
      1 N         139.8465  138.1840  160.0411 N.pl3   1  UNL1       -0.2820
      2 H         139.2392  137.6245  159.5051 H       1  UNL1        0.1551
      3 C         138.4272  139.6802  163.4318 C.ar    1  UNL1        0.0491
      4 C         138.6846  139.4841  161.9672 C.ar    1  UNL1        0.0487
      5 C         139.5891  138.3800  161.5058 C.ar    1  UNL1        0.1345
      6 N         140.2362  137.4720  162.5092 N.ar    1  UNL1       -0.2290
      7 C         139.9787  137.6680  163.9738 C.ar    1  UNL1        0.1016
      8 C         139.0742  138.7721  164.4351 C.ar    1  UNL1        0.0354
      9 C         138.8168  138.9681  165.8999 C.ar    1  UNL1        0.0423
     10 C         137.7102  138.3381  166.6927 C.ar    1  UNL1        0.1217
     11 N         137.8303  138.8092  168.1117 N.ar    1  UNL1       -0.1676
     12 N         139.0112  139.7304  168.1959 N.ar    1  UNL1       -0.2473
     13 C         139.4970  140.4305  169.4304 C.3     1  UNL1        0.1538
     14 C         139.6208  139.8286  166.8289 C.ar    1  UNL1        0.0968
     15 C         138.0691  142.1665  164.0951 C.3     1  UNL1        0.1085
     16 N         137.5227  140.7843  163.8932 N.pl3   1  UNL1       -0.3312
     17 H         136.5703  140.6017  164.0634 H       1  UNL1        0.1469
     18 C         141.0294  138.8405  159.3931 C.ar    1  UNL1        0.1558
     19 C         142.0070  138.0174  158.6076 C.ar    1  UNL1        0.1342
     20 N         143.1898  138.6739  157.9595 N.ar    1  UNL1       -0.2263
     21 C         143.3950  140.1535  158.0970 C.ar    1  UNL1        0.2025
     22 C         142.4174  140.9765  158.8825 C.ar    1  UNL1        0.2543
     23 N         141.2346  140.3200  159.5305 N.ar    1  UNL1       -0.1931
     24 C         144.5778  140.8100  157.4490 C.1     1  UNL1        0.1246
     25 N         145.7606  141.4665  156.8009 N.1     1  UNL1       -0.1891
     26 O         142.6227  142.4561  159.0199 O.3     1  UNL1       -0.4610
     27 C         143.1552  143.0234  160.3023 C.3     1  UNL1        0.1849
     28 C         144.4964  142.7298  160.9065 C.3     1  UNL1        0.0623
     29 C         144.6102  143.5090  162.1832 C.3     1  UNL1        0.0760
     30 N         143.3394  144.2841  162.3680 N.3     1  UNL1       -0.2684
     31 C         143.0232  145.1988  163.5141 C.3     1  UNL1        0.0897
     32 C         142.4402  143.9840  161.2055 C.3     1  UNL1        0.1163
@<TRIPOS>BOND
     1    15    16    1
     2    16     3    1
     3     3     4   ar
     4     4     5   ar
     5     5     1    1
     6     1    18    1
     7    18    19   ar
     8    19    20   ar
     9    20    21   ar
    10    21    24    1
    11    24    25    3
    12    21    22   ar
    13    22    26    1
    14    27    26    1
    15    27    28    1
    16    28    29    1
    17    29    30    1
    18    30    31    1
    19    30    32    1
    20    22    23   ar
    21     5     6   ar
    22     6     7   ar
    23     7     8   ar
    24     8     9    1
    25     9    10   ar
    26    10    11   ar
    27    11    12   ar
    28    12    13    1
    29    12    14   ar
    30     8     3   ar
    31    14     9   ar
    32    23    18   ar
    33    32    27    1
    34    16    17    1
    35     1     2    1
@<TRIPOS>MOLECULE
*****
 32 35 0 0 0
SMALL
GASTEIGER

@<TRIPOS>ATOM
      1 N         139.3642  138.4082  159.8022 N.pl3   1  UNL1       -0.2820
      2 H         138.6445  137.9801  159.2846 H       1  UNL1        0.1551
      3 C         138.2482  139.8577  163.3241 C.ar    1  UNL1        0.0491
      4 C         138.3888  139.6912  161.8401 C.ar    1  UNL1        0.0487
      5 C         139.2237  138.5747  161.2864 C.ar    1  UNL1        0.1345
      6 N         139.9180  137.6249  162.2167 N.ar    1  UNL1       -0.2290
      7 C         139.7775  137.7914  163.7008 C.ar    1  UNL1        0.1016
      8 C         138.9426  138.9079  164.2545 C.ar    1  UNL1        0.0354
      9 C         138.8020  139.0744  165.7386 C.ar    1  UNL1        0.0423
     10 C         137.7675  138.4197  166.6052 C.ar    1  UNL1        0.1217
     11 N         137.9975  138.8656  168.0189 N.ar    1  UNL1       -0.1676
     12 N         139.1742  139.7958  168.0259 N.ar    1  UNL1       -0.2473
     13 C         139.7522  140.4772  169.2307 C.3     1  UNL1        0.1538
     14 C         139.6715  139.9248  166.6166 C.ar    1  UNL1        0.0968
     15 C         137.5024  142.3460  163.2778 C.3     1  UNL1        0.1085
     16 N         137.4133  140.9741  163.8778 N.pl3   1  UNL1       -0.3312
     17 H         136.8069  140.8064  164.6350 H       1  UNL1        0.1469
     18 C         140.6014  138.8939  159.1069 C.ar    1  UNL1        0.1558
     19 C         141.0019  140.3359  159.2089 C.ar    1  UNL1        0.1342
     20 N         142.2390  140.8217  158.5135 N.ar    1  UNL1       -0.2263
     21 C         143.0757  139.8654  157.7161 C.ar    1  UNL1        0.2025
     22 C         142.6751  138.4235  157.6141 C.ar    1  UNL1        0.2543
     23 N         141.4380  137.9378  158.3095 N.ar    1  UNL1       -0.1931
     24 C         144.3128  140.3511  157.0208 C.1     1  UNL1        0.1246
     25 N         145.5499  140.8369  156.3254 N.1     1  UNL1       -0.1891
     26 O         143.5117  137.4673  156.8168 O.3     1  UNL1       -0.4610
     27 C         142.9700  136.1150  156.4591 C.3     1  UNL1        0.1849
     28 C         141.8672  135.8375  155.4809 C.3     1  UNL1        0.0623
     29 C         141.6515  134.3538  155.4341 C.3     1  UNL1        0.0760
     30 N         142.6211  133.7144  156.3835 N.3     1  UNL1       -0.2684
     31 C         142.7527  132.2445  156.6521 C.3     1  UNL1        0.0897
     32 C         143.4359  134.8029  157.0169 C.3     1  UNL1        0.1163
@<TRIPOS>BOND
     1    15    16    1
     2    16     3    1
     3     3     4   ar
     4     4     5   ar
     5     5     1    1
     6     1    18    1
     7    18    19   ar
     8    19    20   ar
     9    20    21   ar
    10    21    24    1
    11    24    25    3
    12    21    22   ar
    13    22    26    1
    14    27    26    1
    15    27    28    1
    16    28    29    1
    17    29    30    1
    18    30    31    1
    19    30    32    1
    20    22    23   ar
    21     5     6   ar
    22     6     7   ar
    23     7     8   ar
    24     8     9    1
    25     9    10   ar
    26    10    11   ar
    27    11    12   ar
    28    12    13    1
    29    12    14   ar
    30     8     3   ar
    31    14     9   ar
    32    23    18   ar
    33    32    27    1
    34    16    17    1
    35     1     2    1
@<TRIPOS>MOLECULE
*****
 32 35 0 0 0
SMALL
GASTEIGER

@<TRIPOS>ATOM
      1 N         138.5776  137.5558  164.0170 N.pl3   1  UNL1       -0.2820
      2 H         137.8695  136.8753  163.9480 H       1  UNL1        0.1551
      3 C         141.8345  137.9021  161.7757 C.ar    1  UNL1        0.0491
      4 C         140.9463  137.6220  162.9516 C.ar    1  UNL1        0.0487
      5 C         139.4658  137.8359  162.8410 C.ar    1  UNL1        0.1345
      6 N         138.8734  138.3298  161.5545 N.ar    1  UNL1       -0.2290
      7 C         139.7615  138.6098  160.3786 C.ar    1  UNL1        0.1016
      8 C         141.2421  138.3959  160.4892 C.ar    1  UNL1        0.0354
      9 C         142.1302  138.6760  159.3132 C.ar    1  UNL1        0.0423
     10 C         142.4514  137.7195  158.2034 C.ar    1  UNL1        0.1217
     11 N         143.3728  138.4141  157.2449 N.ar    1  UNL1       -0.1676
     12 N         143.6210  139.8000  157.7624 N.ar    1  UNL1       -0.2473
     13 C         144.4854  140.8411  157.1153 C.3     1  UNL1        0.1538
     14 C         142.8530  139.9618  159.0407 C.ar    1  UNL1        0.0968
     15 C         144.1873  138.7641  162.4621 C.3     1  UNL1        0.1085
     16 N         143.3150  137.6882  161.8863 N.pl3   1  UNL1       -0.3312
     17 H         143.7143  136.8417  161.5809 H       1  UNL1        0.1469
     18 C         138.7684  138.3126  165.2979 C.ar    1  UNL1        0.1558
     19 C         137.9046  138.0067  166.4855 C.ar    1  UNL1        0.1342
     20 N         138.0954  138.7635  167.7665 N.ar    1  UNL1       -0.2263
     21 C         139.1500  139.8262  167.8598 C.ar    1  UNL1        0.2025
     22 C         140.0137  140.1321  166.6723 C.ar    1  UNL1        0.2543
     23 N         139.8229  139.3753  165.3913 N.ar    1  UNL1       -0.1931
     24 C         139.3407  140.5830  169.1408 C.1     1  UNL1        0.1246
     25 N         139.5315  141.3398  170.4218 N.1     1  UNL1       -0.1891
     26 O         141.0682  141.1948  166.7656 O.3     1  UNL1       -0.4610
     27 C         140.9957  142.4032  165.8800 C.3     1  UNL1        0.1849
     28 C         139.7670  143.2152  165.5953 C.3     1  UNL1        0.0623
     29 C         140.1510  144.3257  164.6629 C.3     1  UNL1        0.0760
     30 N         141.6171  144.2000  164.3714 N.3     1  UNL1       -0.2684
     31 C         142.4201  145.1039  163.4835 C.3     1  UNL1        0.0897
     32 C         142.1391  143.0119  165.1236 C.3     1  UNL1        0.1163
@<TRIPOS>BOND
     1    15    16    1
     2    16     3    1
     3     3     4   ar
     4     4     5   ar
     5     5     1    1
     6     1    18    1
     7    18    19   ar
     8    19    20   ar
     9    20    21   ar
    10    21    24    1
    11    24    25    3
    12    21    22   ar
    13    22    26    1
    14    27    26    1
    15    27    28    1
    16    28    29    1
    17    29    30    1
    18    30    31    1
    19    30    32    1
    20    22    23   ar
    21     5     6   ar
    22     6     7   ar
    23     7     8   ar
    24     8     9    1
    25     9    10   ar
    26    10    11   ar
    27    11    12   ar
    28    12    13    1
    29    12    14   ar
    30     8     3   ar
    31    14     9   ar
    32    23    18   ar
    33    32    27    1
    34    16    17    1
    35     1     2    1
@<TRIPOS>MOLECULE
*****
 32 35 0 0 0
SMALL
GASTEIGER

@<TRIPOS>ATOM
      1 N         139.7439  143.6097  165.8852 N.pl3   1  UNL1       -0.2820
      2 H         139.0453  144.1832  166.2755 H       1  UNL1        0.1551
      3 C         141.9557  144.4730  162.7052 C.ar    1  UNL1        0.0491
      4 C         141.5412  144.2832  164.1342 C.ar    1  UNL1        0.0487
      5 C         140.1583  143.7994  164.4561 C.ar    1  UNL1        0.1345
      6 N         139.1900  143.5054  163.3490 N.ar    1  UNL1       -0.2290
      7 C         139.6045  143.6952  161.9200 C.ar    1  UNL1        0.1016
      8 C         140.9874  144.1789  161.5981 C.ar    1  UNL1        0.0354
      9 C         141.4019  144.3687  160.1690 C.ar    1  UNL1        0.0423
     10 C         142.4202  143.5517  159.4304 C.ar    1  UNL1        0.1217
     11 N         142.5185  144.0869  158.0326 N.ar    1  UNL1       -0.1676
     12 N         141.5608  145.2346  157.9072 N.ar    1  UNL1       -0.2473
     13 C         141.3332  146.0627  156.6774 C.3     1  UNL1        0.1538
     14 C         140.8707  145.4088  159.2276 C.ar    1  UNL1        0.0968
     15 C         144.5083  144.0272  162.5162 C.3     1  UNL1        0.1085
     16 N         143.3386  144.9568  162.3833 N.pl3   1  UNL1       -0.3312
     17 H         143.4785  145.8845  162.0849 H       1  UNL1        0.1469
     18 C         140.3938  142.5461  166.7197 C.ar    1  UNL1        0.1558
     19 C         140.5811  142.7586  168.1928 C.ar    1  UNL1        0.1342
     20 N         141.2310  141.6950  169.0273 N.ar    1  UNL1       -0.2263
     21 C         141.6936  140.4189  168.3887 C.ar    1  UNL1        0.2025
     22 C         141.5062  140.2065  166.9157 C.ar    1  UNL1        0.2543
     23 N         140.8563  141.2701  166.0812 N.ar    1  UNL1       -0.1931
     24 C         142.3435  139.3553  169.2232 C.1     1  UNL1        0.1246
     25 N         142.9934  138.2917  170.0577 N.1     1  UNL1       -0.1891
     26 O         141.9688  138.9304  166.2771 O.3     1  UNL1       -0.4610
     27 C         142.7926  138.9743  165.0244 C.3     1  UNL1        0.1849
     28 C         144.0217  139.8060  164.8060 C.3     1  UNL1        0.0623
     29 C         144.5207  139.5399  163.4168 C.3     1  UNL1        0.0760
     30 N         143.6000  138.5437  162.7764 N.3     1  UNL1       -0.2684
     31 C         143.7253  137.9936  161.3866 C.3     1  UNL1        0.0897
     32 C         142.5320  138.1941  163.7700 C.3     1  UNL1        0.1163
@<TRIPOS>BOND
     1    15    16    1
     2    16     3    1
     3     3     4   ar
     4     4     5   ar
     5     5     1    1
     6     1    18    1
     7    18    19   ar
     8    19    20   ar
     9    20    21   ar
    10    21    24    1
    11    24    25    3
    12    21    22   ar
    13    22    26    1
    14    27    26    1
    15    27    28    1
    16    28    29    1
    17    29    30    1
    18    30    31    1
    19    30    32    1
    20    22    23   ar
    21     5     6   ar
    22     6     7   ar
    23     7     8   ar
    24     8     9    1
    25     9    10   ar
    26    10    11   ar
    27    11    12   ar
    28    12    13    1
    29    12    14   ar
    30     8     3   ar
    31    14     9   ar
    32    23    18   ar
    33    32    27    1
    34    16    17    1
    35     1     2    1
@<TRIPOS>MOLECULE
*****
 32 35 0 0 0
SMALL
GASTEIGER

@<TRIPOS>ATOM
      1 N         142.6506  142.6171  165.9075 N.pl3   1  UNL1       -0.2820
      2 H         143.5852  142.7744  166.1736 H       1  UNL1        0.1551
      3 C         140.4747  144.1554  162.9665 C.ar    1  UNL1        0.0491
      4 C         140.9344  143.7855  164.3456 C.ar    1  UNL1        0.0487
      5 C         142.1909  142.9869  164.5283 C.ar    1  UNL1        0.1345
      6 N         142.9878  142.5583  163.3320 N.ar    1  UNL1       -0.2290
      7 C         142.5281  142.9281  161.9530 C.ar    1  UNL1        0.1016
      8 C         141.2716  143.7267  161.7702 C.ar    1  UNL1        0.0354
      9 C         140.8119  144.0966  160.3911 C.ar    1  UNL1        0.0423
     10 C         141.0897  145.3915  159.6868 C.ar    1  UNL1        0.1217
     11 N         140.4433  145.3317  158.3346 N.ar    1  UNL1       -0.1676
     12 N         139.7659  143.9997  158.2031 N.ar    1  UNL1       -0.2473
     13 C         138.9960  143.5161  157.0101 C.3     1  UNL1        0.1538
     14 C         139.9938  143.2365  159.4741 C.ar    1  UNL1        0.0968
     15 C         137.8827  144.3190  163.0353 C.3     1  UNL1        0.1085
     16 N         139.2182  144.9540  162.7837 N.pl3   1  UNL1       -0.3312
     17 H         139.2700  145.8949  162.4987 H       1  UNL1        0.1469
     18 C         141.6860  142.0074  166.8811 C.ar    1  UNL1        0.1558
     19 C         141.6749  142.4624  168.3105 C.ar    1  UNL1        0.1342
     20 N         140.7104  141.8527  169.2841 N.ar    1  UNL1       -0.2263
     21 C         139.7570  140.7880  168.8285 C.ar    1  UNL1        0.2025
     22 C         139.7681  140.3331  167.3992 C.ar    1  UNL1        0.2543
     23 N         140.7327  140.9428  166.4255 N.ar    1  UNL1       -0.1931
     24 C         138.7925  140.1784  169.8021 C.1     1  UNL1        0.1246
     25 N         137.8280  139.5687  170.7758 N.1     1  UNL1       -0.1891
     26 O         138.8147  139.2684  166.9435 O.3     1  UNL1       -0.4610
     27 C         138.7280  138.9119  165.4891 C.3     1  UNL1        0.1849
     28 C         139.1843  137.6251  164.8680 C.3     1  UNL1        0.0623
     29 C         138.9080  137.6975  163.3954 C.3     1  UNL1        0.0760
     30 N         138.2809  139.0292  163.1065 N.3     1  UNL1       -0.2684
     31 C         137.8421  139.5235  161.7600 C.3     1  UNL1        0.0897
     32 C         138.1697  139.7797  164.4004 C.3     1  UNL1        0.1163
@<TRIPOS>BOND
     1    15    16    1
     2    16     3    1
     3     3     4   ar
     4     4     5   ar
     5     5     1    1
     6     1    18    1
     7    18    19   ar
     8    19    20   ar
     9    20    21   ar
    10    21    24    1
    11    24    25    3
    12    21    22   ar
    13    22    26    1
    14    27    26    1
    15    27    28    1
    16    28    29    1
    17    29    30    1
    18    30    31    1
    19    30    32    1
    20    22    23   ar
    21     5     6   ar
    22     6     7   ar
    23     7     8   ar
    24     8     9    1
    25     9    10   ar
    26    10    11   ar
    27    11    12   ar
    28    12    13    1
    29    12    14   ar
    30     8     3   ar
    31    14     9   ar
    32    23    18   ar
    33    32    27    1
    34    16    17    1
    35     1     2    1
@<TRIPOS>MOLECULE
*****
 32 35 0 0 0
SMALL
GASTEIGER

@<TRIPOS>ATOM
      1 N         143.2602  142.3332  166.8654 N.pl3   1  UNL1       -0.2820
      2 H         144.0052  142.7657  167.3421 H       1  UNL1        0.1551
      3 C         144.0013  140.9296  163.2280 C.ar    1  UNL1        0.0491
      4 C         143.9687  141.0452  164.7232 C.ar    1  UNL1        0.0487
      5 C         143.2928  142.2176  165.3702 C.ar    1  UNL1        0.1345
      6 N         142.6497  143.2745  164.5220 N.ar    1  UNL1       -0.2290
      7 C         142.6823  143.1588  163.0269 C.ar    1  UNL1        0.1016
      8 C         143.3581  141.9864  162.3799 C.ar    1  UNL1        0.0354
      9 C         143.3908  141.8708  160.8847 C.ar    1  UNL1        0.0423
     10 C         142.3402  141.2303  160.0267 C.ar    1  UNL1        0.1217
     11 N         142.7799  141.3391  158.5967 N.ar    1  UNL1       -0.1676
     12 N         144.1022  142.0468  158.5709 N.ar    1  UNL1       -0.2473
     13 C         144.9058  142.3693  157.3461 C.3     1  UNL1        0.1538
     14 C         144.4797  142.3754  159.9849 C.ar    1  UNL1        0.0968
     15 C         143.8830  138.5346  162.2281 C.3     1  UNL1        0.1085
     16 N         144.6772  139.7571  162.5810 N.pl3   1  UNL1       -0.3312
     17 H         145.6420  139.7900  162.3880 H       1  UNL1        0.1469
     18 C         142.0925  141.7899  167.6343 C.ar    1  UNL1        0.1558
     19 C         141.8587  142.2259  169.0505 C.ar    1  UNL1        0.1342
     20 N         140.6910  141.6826  169.8194 N.ar    1  UNL1       -0.2263
     21 C         139.7570  140.7033  169.1722 C.ar    1  UNL1        0.2025
     22 C         139.9908  140.2674  167.7561 C.ar    1  UNL1        0.2543
     23 N         141.1585  140.8107  166.9872 N.ar    1  UNL1       -0.1931
     24 C         138.5893  140.1600  169.9411 C.1     1  UNL1        0.1246
     25 N         137.4215  139.6167  170.7100 N.1     1  UNL1       -0.1891
     26 O         139.0568  139.2882  167.1089 O.3     1  UNL1       -0.4610
     27 C         138.7249  139.4189  165.6519 C.3     1  UNL1        0.1849
     28 C         138.2160  140.6547  164.9709 C.3     1  UNL1        0.0623
     29 C         138.0202  140.3363  163.5183 C.3     1  UNL1        0.0760
     30 N         138.4080  138.9036  163.3015 N.3     1  UNL1       -0.2684
     31 C         138.3675  138.1672  161.9953 C.3     1  UNL1        0.0897
     32 C         138.8436  138.3366  164.6201 C.3     1  UNL1        0.1163
@<TRIPOS>BOND
     1    15    16    1
     2    16     3    1
     3     3     4   ar
     4     4     5   ar
     5     5     1    1
     6     1    18    1
     7    18    19   ar
     8    19    20   ar
     9    20    21   ar
    10    21    24    1
    11    24    25    3
    12    21    22   ar
    13    22    26    1
    14    27    26    1
    15    27    28    1
    16    28    29    1
    17    29    30    1
    18    30    31    1
    19    30    32    1
    20    22    23   ar
    21     5     6   ar
    22     6     7   ar
    23     7     8   ar
    24     8     9    1
    25     9    10   ar
    26    10    11   ar
    27    11    12   ar
    28    12    13    1
    29    12    14   ar
    30     8     3   ar
    31    14     9   ar
    32    23    18   ar
    33    32    27    1
    34    16    17    1
    35     1     2    1
