@<TRIPOS>MOLECULE
*****
 35 39 0 0 0
SMALL
GASTEIGER

@<TRIPOS>ATOM
      1 O         141.3428  140.7743  162.8515 O.2     1  UNL1       -0.2522
      2 C         140.4834  139.6863  163.4240 C.2     1  UNL1        0.3081
      3 N         140.0385  138.5469  162.5558 N.am    1  UNL1       -0.2681
      4 N         140.0689  139.7378  164.8647 N.am    1  UNL1       -0.2576
      5 C         139.2094  138.6498  165.4371 C.3     1  UNL1        0.1018
      6 C         138.7949  138.7013  166.8778 C.3     1  UNL1        0.0671
      7 C         139.2398  139.8408  167.7460 C.ar    1  UNL1        0.0586
      8 N         138.8252  139.8922  169.1866 N.ar    1  UNL1       -0.2483
      9 C         139.2701  141.0316  170.0548 C.ar    1  UNL1        0.0984
     10 C         140.1295  142.1196  169.4823 C.ar    1  UNL1        0.0204
     11 C         140.5441  142.0681  168.0417 C.ar    1  UNL1        0.0004
     12 C         140.0992  140.9287  167.1736 C.ar    1  UNL1        0.0136
     13 C         140.5137  140.8772  165.7328 C.3     1  UNL1        0.1231
     14 H         139.4745  137.8328  162.9315 H       1  UNL1        0.1564
     15 C         141.3732  141.9652  165.1604 C.ar    1  UNL1        0.0000
     16 C         140.7382  143.1752  164.5417 C.ar    1  UNL1       -0.0015
     17 C         141.5977  144.2632  163.9692 C.ar    1  UNL1        0.0111
     18 C         143.0920  144.1411  164.0155 C.ar    1  UNL1        0.0577
     19 CL        143.9515  145.2291  163.4430 Cl      1  UNL1       -0.0822
     20 C         143.7269  142.9311  164.6341 C.ar    1  UNL1        0.0111
     21 C         142.8675  141.8431  165.2066 C.ar    1  UNL1       -0.0015
     22 C         140.4531  138.4954  161.1152 C.ar    1  UNL1        0.0518
     23 C         139.4497  138.7743  160.0356 C.ar    1  UNL1        0.0178
     24 C         139.8643  138.7228  158.5949 C.ar    1  UNL1        0.0388
     25 C         141.2823  138.3925  158.2338 C.ar    1  UNL1        0.1454
     26 C         142.2856  138.1137  159.3134 C.ar    1  UNL1        0.0388
     27 C         141.8711  138.1651  160.7541 C.ar    1  UNL1        0.0178
     28 O         141.6968  138.3411  156.7932 O.3     1  UNL1       -0.4535
     29 C         142.0664  137.0298  156.1655 C.ar    1  UNL1        0.1454
     30 C         143.5051  136.6115  156.0941 C.ar    1  UNL1        0.0398
     31 C         143.8747  135.3003  155.4664 C.ar    1  UNL1        0.0328
     32 C         142.8056  134.4073  154.9100 C.ar    1  UNL1        0.1403
     33 F         143.1752  133.0961  154.2823 F       1  UNL1       -0.2042
     34 C         141.3668  134.8256  154.9814 C.ar    1  UNL1        0.0328
     35 C         140.9972  136.1368  155.6091 C.ar    1  UNL1        0.0398
@<TRIPOS>BOND
     1     1     2    2
     2     2     3   am
     3     3    22    1
     4    22    23   ar
     5    23    24   ar
     6    24    25   ar
     7    25    28    1
     8    28    29    1
     9    29    30   ar
    10    30    31   ar
    11    31    32   ar
    12    32    33    1
    13    32    34   ar
    14    34    35   ar
    15    25    26   ar
    16    26    27   ar
    17     2     4   am
    18     4     5    1
    19     5     6    1
    20     6     7    1
    21     7     8   ar
    22     8     9   ar
    23     9    10   ar
    24    10    11   ar
    25    11    12   ar
    26    12    13    1
    27    13    15    1
    28    15    16   ar
    29    16    17   ar
    30    17    18   ar
    31    18    19    1
    32    18    20   ar
    33    20    21   ar
    34    27    22   ar
    35    13     4    1
    36    21    15   ar
    37    35    29   ar
    38    12     7   ar
    39     3    14    1
@<TRIPOS>MOLECULE
*****
 35 39 0 0 0
SMALL
GASTEIGER

@<TRIPOS>ATOM
      1 O         141.2096  140.7418  163.6433 O.2     1  UNL1       -0.2522
      2 C         142.0891  139.8511  164.4699 C.2     1  UNL1        0.3081
      3 N         143.0314  138.8961  163.7993 N.am    1  UNL1       -0.2681
      4 N         142.0262  139.9156  165.9673 N.am    1  UNL1       -0.2576
      5 C         142.9056  139.0249  166.7939 C.3     1  UNL1        0.1018
      6 C         142.8428  139.0893  168.2912 C.3     1  UNL1        0.0671
      7 C         141.9004  140.0444  168.9619 C.ar    1  UNL1        0.0586
      8 N         141.8376  140.1088  170.4592 N.ar    1  UNL1       -0.2483
      9 C         140.8952  141.0638  171.1298 C.ar    1  UNL1        0.0984
     10 C         140.0158  141.9545  170.3032 C.ar    1  UNL1        0.0204
     11 C         140.0786  141.8901  168.8060 C.ar    1  UNL1        0.0004
     12 C         141.0209  140.9350  168.1353 C.ar    1  UNL1        0.0136
     13 C         141.0838  140.8706  166.6380 C.3     1  UNL1        0.1231
     14 H         143.6086  138.3115  164.3418 H       1  UNL1        0.1564
     15 C         140.2044  141.7613  165.8114 C.ar    1  UNL1        0.0000
     16 C         138.8642  141.2715  165.3484 C.ar    1  UNL1       -0.0015
     17 C         137.9848  142.1621  164.5218 C.ar    1  UNL1        0.0111
     18 C         138.4454  143.5426  164.1582 C.ar    1  UNL1        0.0577
     19 CL        137.5659  144.4332  163.3316 Cl      1  UNL1       -0.0822
     20 C         139.7855  144.0323  164.6211 C.ar    1  UNL1        0.0111
     21 C         140.6649  143.1417  165.4477 C.ar    1  UNL1       -0.0015
     22 C         143.0942  138.8317  162.3020 C.ar    1  UNL1        0.0518
     23 C         143.9390  139.8123  161.5439 C.ar    1  UNL1        0.0178
     24 C         144.0019  139.7479  160.0466 C.ar    1  UNL1        0.0388
     25 C         143.2199  138.7028  159.3074 C.ar    1  UNL1        0.1454
     26 C         142.3751  137.7222  160.0655 C.ar    1  UNL1        0.0388
     27 C         142.3123  137.7866  161.5627 C.ar    1  UNL1        0.0178
     28 O         143.2828  138.6385  157.8101 O.3     1  UNL1       -0.4535
     29 C         142.6745  137.4759  157.0832 C.ar    1  UNL1        0.1454
     30 C         143.4102  136.1710  157.0069 C.ar    1  UNL1        0.0398
     31 C         142.8019  135.0084  156.2800 C.ar    1  UNL1        0.0328
     32 C         141.4578  135.1508  155.6294 C.ar    1  UNL1        0.1403
     33 F         140.8495  133.9882  154.9025 F       1  UNL1       -0.2042
     34 C         140.7220  136.4557  155.7057 C.ar    1  UNL1        0.0328
     35 C         141.3304  137.6183  156.4326 C.ar    1  UNL1        0.0398
@<TRIPOS>BOND
     1     1     2    2
     2     2     3   am
     3     3    22    1
     4    22    23   ar
     5    23    24   ar
     6    24    25   ar
     7    25    28    1
     8    28    29    1
     9    29    30   ar
    10    30    31   ar
    11    31    32   ar
    12    32    33    1
    13    32    34   ar
    14    34    35   ar
    15    25    26   ar
    16    26    27   ar
    17     2     4   am
    18     4     5    1
    19     5     6    1
    20     6     7    1
    21     7     8   ar
    22     8     9   ar
    23     9    10   ar
    24    10    11   ar
    25    11    12   ar
    26    12    13    1
    27    13    15    1
    28    15    16   ar
    29    16    17   ar
    30    17    18   ar
    31    18    19    1
    32    18    20   ar
    33    20    21   ar
    34    27    22   ar
    35    13     4    1
    36    21    15   ar
    37    35    29   ar
    38    12     7   ar
    39     3    14    1
@<TRIPOS>MOLECULE
*****
 35 39 0 0 0
SMALL
GASTEIGER

@<TRIPOS>ATOM
      1 O         140.4603  141.2801  162.6442 O.2     1  UNL1       -0.2522
      2 C         139.5417  140.2143  163.1642 C.2     1  UNL1        0.3081
      3 N         138.8310  139.3043  162.2069 N.am    1  UNL1       -0.2681
      4 N         139.3339  140.0587  164.6416 N.am    1  UNL1       -0.2576
      5 C         138.4153  138.9930  165.1616 C.3     1  UNL1        0.1018
      6 C         138.2075  138.8373  166.6389 C.3     1  UNL1        0.0671
      7 C         138.9183  139.7474  167.5964 C.ar    1  UNL1        0.0586
      8 N         138.7104  139.5918  169.0737 N.ar    1  UNL1       -0.2483
      9 C         139.4212  140.5019  170.0310 C.ar    1  UNL1        0.0984
     10 C         140.3398  141.5676  169.5110 C.ar    1  UNL1        0.0204
     11 C         140.5476  141.7232  168.0337 C.ar    1  UNL1        0.0004
     12 C         139.8369  140.8132  167.0764 C.ar    1  UNL1        0.0136
     13 C         140.0447  140.9688  165.5990 C.3     1  UNL1        0.1231
     14 H         138.2281  138.6048  162.5482 H       1  UNL1        0.1564
     15 C         140.9633  142.0345  165.0790 C.ar    1  UNL1        0.0000
     16 C         140.4195  143.3879  164.7285 C.ar    1  UNL1       -0.0015
     17 C         141.3381  144.4536  164.2085 C.ar    1  UNL1        0.0111
     18 C         142.8005  144.1660  164.0390 C.ar    1  UNL1        0.0577
     19 CL        143.7191  145.2317  163.5190 Cl      1  UNL1       -0.0822
     20 C         143.3442  142.8127  164.3894 C.ar    1  UNL1        0.0111
     21 C         142.4256  141.7469  164.9094 C.ar    1  UNL1       -0.0015
     22 C         139.0388  139.4599  160.7296 C.ar    1  UNL1        0.0518
     23 C         138.1031  140.3140  159.9264 C.ar    1  UNL1        0.0178
     24 C         138.3110  140.4696  158.4490 C.ar    1  UNL1        0.0388
     25 C         139.4545  139.7712  157.7748 C.ar    1  UNL1        0.1454
     26 C         140.3902  138.9171  158.5780 C.ar    1  UNL1        0.0388
     27 C         140.1824  138.7615  160.0553 C.ar    1  UNL1        0.0178
     28 O         139.6624  139.9269  156.2975 O.3     1  UNL1       -0.4535
     29 C         138.8686  139.0924  155.3364 C.ar    1  UNL1        0.1454
     30 C         139.4818  137.8695  154.7213 C.ar    1  UNL1        0.0398
     31 C         138.6881  137.0350  153.7602 C.ar    1  UNL1        0.0328
     32 C         137.2812  137.4235  153.4142 C.ar    1  UNL1        0.1403
     33 F         136.4875  136.5890  152.4531 F       1  UNL1       -0.2042
     34 C         136.6680  138.6465  154.0294 C.ar    1  UNL1        0.0328
     35 C         137.4617  139.4809  154.9905 C.ar    1  UNL1        0.0398
@<TRIPOS>BOND
     1     1     2    2
     2     2     3   am
     3     3    22    1
     4    22    23   ar
     5    23    24   ar
     6    24    25   ar
     7    25    28    1
     8    28    29    1
     9    29    30   ar
    10    30    31   ar
    11    31    32   ar
    12    32    33    1
    13    32    34   ar
    14    34    35   ar
    15    25    26   ar
    16    26    27   ar
    17     2     4   am
    18     4     5    1
    19     5     6    1
    20     6     7    1
    21     7     8   ar
    22     8     9   ar
    23     9    10   ar
    24    10    11   ar
    25    11    12   ar
    26    12    13    1
    27    13    15    1
    28    15    16   ar
    29    16    17   ar
    30    17    18   ar
    31    18    19    1
    32    18    20   ar
    33    20    21   ar
    34    27    22   ar
    35    13     4    1
    36    21    15   ar
    37    35    29   ar
    38    12     7   ar
    39     3    14    1
@<TRIPOS>MOLECULE
*****
 35 39 0 0 0
SMALL
GASTEIGER

@<TRIPOS>ATOM
      1 O         141.2447  140.8347  163.6619 O.2     1  UNL1       -0.2522
      2 C         142.1244  139.9500  164.4946 C.2     1  UNL1        0.3081
      3 N         143.0964  139.0202  163.8309 N.am    1  UNL1       -0.2681
      4 N         142.0321  139.9952  165.9911 N.am    1  UNL1       -0.2576
      5 C         142.9118  139.1106  166.8239 C.3     1  UNL1        0.1018
      6 C         142.8196  139.1557  168.3203 C.3     1  UNL1        0.0671
      7 C         141.8475  140.0856  168.9841 C.ar    1  UNL1        0.0586
      8 N         141.7553  140.1308  170.4806 N.ar    1  UNL1       -0.2483
      9 C         140.7833  141.0606  171.1443 C.ar    1  UNL1        0.0984
     10 C         139.9035  141.9453  170.3116 C.ar    1  UNL1        0.0204
     11 C         139.9958  141.9001  168.8151 C.ar    1  UNL1        0.0004
     12 C         140.9678  140.9703  168.1514 C.ar    1  UNL1        0.0136
     13 C         141.0601  140.9250  166.6549 C.3     1  UNL1        0.1231
     14 H         143.6738  138.4395  164.3774 H       1  UNL1        0.1564
     15 C         140.1804  141.8097  165.8221 C.ar    1  UNL1        0.0000
     16 C         138.8531  141.3057  165.3380 C.ar    1  UNL1       -0.0015
     17 C         137.9733  142.1904  164.5053 C.ar    1  UNL1        0.0111
     18 C         138.4209  143.5790  164.1567 C.ar    1  UNL1        0.0577
     19 CL        137.5411  144.4637  163.3240 Cl      1  UNL1       -0.0822
     20 C         139.7481  144.0829  164.6408 C.ar    1  UNL1        0.0111
     21 C         140.6279  143.1983  165.4736 C.ar    1  UNL1       -0.0015
     22 C         143.1887  138.9750  162.3344 C.ar    1  UNL1        0.0518
     23 C         142.4871  137.8902  161.5721 C.ar    1  UNL1        0.0178
     24 C         142.5794  137.8451  160.0756 C.ar    1  UNL1        0.0388
     25 C         143.3732  138.8847  159.3415 C.ar    1  UNL1        0.1454
     26 C         144.0748  139.9695  160.1037 C.ar    1  UNL1        0.0388
     27 C         143.9825  140.0146  161.6002 C.ar    1  UNL1        0.0178
     28 O         143.4655  138.8395  157.8450 O.3     1  UNL1       -0.4535
     29 C         143.6072  140.1120  157.0636 C.ar    1  UNL1        0.1454
     30 C         142.4275  141.0226  156.8927 C.ar    1  UNL1        0.0398
     31 C         142.5692  142.2951  156.1112 C.ar    1  UNL1        0.0328
     32 C         143.8906  142.6570  155.5006 C.ar    1  UNL1        0.1403
     33 F         144.0323  143.9295  154.7192 F       1  UNL1       -0.2042
     34 C         145.0704  141.7465  155.6715 C.ar    1  UNL1        0.0328
     35 C         144.9287  140.4740  156.4529 C.ar    1  UNL1        0.0398
@<TRIPOS>BOND
     1     1     2    2
     2     2     3   am
     3     3    22    1
     4    22    23   ar
     5    23    24   ar
     6    24    25   ar
     7    25    28    1
     8    28    29    1
     9    29    30   ar
    10    30    31   ar
    11    31    32   ar
    12    32    33    1
    13    32    34   ar
    14    34    35   ar
    15    25    26   ar
    16    26    27   ar
    17     2     4   am
    18     4     5    1
    19     5     6    1
    20     6     7    1
    21     7     8   ar
    22     8     9   ar
    23     9    10   ar
    24    10    11   ar
    25    11    12   ar
    26    12    13    1
    27    13    15    1
    28    15    16   ar
    29    16    17   ar
    30    17    18   ar
    31    18    19    1
    32    18    20   ar
    33    20    21   ar
    34    27    22   ar
    35    13     4    1
    36    21    15   ar
    37    35    29   ar
    38    12     7   ar
    39     3    14    1
@<TRIPOS>MOLECULE
*****
 35 39 0 0 0
SMALL
GASTEIGER

@<TRIPOS>ATOM
      1 O         140.2618  141.3025  162.9590 O.2     1  UNL1       -0.2522
      2 C         139.3856  140.2612  163.5898 C.2     1  UNL1        0.3081
      3 N         138.6032  139.3164  162.7267 N.am    1  UNL1       -0.2681
      4 N         139.2919  140.1647  165.0838 N.am    1  UNL1       -0.2576
      5 C         138.4157  139.1234  165.7146 C.3     1  UNL1        0.1018
      6 C         138.3220  139.0269  167.2085 C.3     1  UNL1        0.0671
      7 C         139.1045  139.9718  168.0717 C.ar    1  UNL1        0.0586
      8 N         139.0108  139.8753  169.5657 N.ar    1  UNL1       -0.2483
      9 C         139.7932  140.8201  170.4288 C.ar    1  UNL1        0.0984
     10 C         140.6694  141.8614  169.7980 C.ar    1  UNL1        0.0204
     11 C         140.7632  141.9579  168.3040 C.ar    1  UNL1        0.0004
     12 C         139.9807  141.0131  167.4409 C.ar    1  UNL1        0.0136
     13 C         140.0744  141.1096  165.9469 C.3     1  UNL1        0.1231
     14 H         138.0281  138.6330  163.1407 H       1  UNL1        0.1564
     15 C         140.9506  142.1509  165.3161 C.ar    1  UNL1        0.0000
     16 C         142.3996  141.8579  165.0618 C.ar    1  UNL1       -0.0015
     17 C         143.2759  142.8992  164.4310 C.ar    1  UNL1        0.0111
     18 C         142.7031  144.2335  164.0545 C.ar    1  UNL1        0.0577
     19 CL        143.5793  145.2748  163.4237 Cl      1  UNL1       -0.0822
     20 C         141.2541  144.5264  164.3088 C.ar    1  UNL1        0.0111
     21 C         140.3779  143.4851  164.9396 C.ar    1  UNL1       -0.0015
     22 C         138.6969  139.4129  161.2328 C.ar    1  UNL1        0.0518
     23 C         137.8424  140.3966  160.4896 C.ar    1  UNL1        0.0178
     24 C         137.9362  140.4931  158.9956 C.ar    1  UNL1        0.0388
     25 C         138.8844  139.6059  158.2448 C.ar    1  UNL1        0.1454
     26 C         139.7389  138.6222  158.9880 C.ar    1  UNL1        0.0388
     27 C         139.6451  138.5257  160.4819 C.ar    1  UNL1        0.0178
     28 O         138.9781  139.7024  156.7509 O.3     1  UNL1       -0.4535
     29 C         138.4086  140.8935  156.0391 C.ar    1  UNL1        0.1454
     30 C         139.2155  142.1523  155.9194 C.ar    1  UNL1        0.0398
     31 C         138.6459  143.3435  155.2075 C.ar    1  UNL1        0.0328
     32 C         137.2694  143.2758  154.6154 C.ar    1  UNL1        0.1403
     33 F         136.6998  144.4670  153.9035 F       1  UNL1       -0.2042
     34 C         136.4624  142.0170  154.7351 C.ar    1  UNL1        0.0328
     35 C         137.0320  140.8259  155.4469 C.ar    1  UNL1        0.0398
@<TRIPOS>BOND
     1     1     2    2
     2     2     3   am
     3     3    22    1
     4    22    23   ar
     5    23    24   ar
     6    24    25   ar
     7    25    28    1
     8    28    29    1
     9    29    30   ar
    10    30    31   ar
    11    31    32   ar
    12    32    33    1
    13    32    34   ar
    14    34    35   ar
    15    25    26   ar
    16    26    27   ar
    17     2     4   am
    18     4     5    1
    19     5     6    1
    20     6     7    1
    21     7     8   ar
    22     8     9   ar
    23     9    10   ar
    24    10    11   ar
    25    11    12   ar
    26    12    13    1
    27    13    15    1
    28    15    16   ar
    29    16    17   ar
    30    17    18   ar
    31    18    19    1
    32    18    20   ar
    33    20    21   ar
    34    27    22   ar
    35    13     4    1
    36    21    15   ar
    37    35    29   ar
    38    12     7   ar
    39     3    14    1
@<TRIPOS>MOLECULE
*****
 35 39 0 0 0
SMALL
GASTEIGER

@<TRIPOS>ATOM
      1 O         141.0553  140.9232  162.7681 O.2     1  UNL1       -0.2522
      2 C         140.1609  139.8202  163.2514 C.2     1  UNL1        0.3081
      3 N         139.6672  138.7797  162.2905 N.am    1  UNL1       -0.2681
      4 N         139.7603  139.7579  164.6956 N.am    1  UNL1       -0.2576
      5 C         138.8659  138.6549  165.1788 C.3     1  UNL1        0.1018
      6 C         138.4653  138.5924  166.6229 C.3     1  UNL1        0.0671
      7 C         138.9590  139.6331  167.5839 C.ar    1  UNL1        0.0586
      8 N         138.5584  139.5706  169.0281 N.ar    1  UNL1       -0.2483
      9 C         139.0521  140.6112  169.9890 C.ar    1  UNL1        0.0984
     10 C         139.9465  141.7142  169.5057 C.ar    1  UNL1        0.0204
     11 C         140.3471  141.7766  168.0616 C.ar    1  UNL1        0.0004
     12 C         139.8534  140.7360  167.1007 C.ar    1  UNL1        0.0136
     13 C         140.2540  140.7984  165.6565 C.3     1  UNL1        0.1231
     14 H         139.0802  138.0557  162.6076 H       1  UNL1        0.1564
     15 C         141.1484  141.9014  165.1733 C.ar    1  UNL1        0.0000
     16 C         140.5535  143.1833  164.6701 C.ar    1  UNL1       -0.0015
     17 C         141.4479  144.2863  164.1869 C.ar    1  UNL1        0.0111
     18 C         142.9371  144.1074  164.2068 C.ar    1  UNL1        0.0577
     19 CL        143.8315  145.2104  163.7236 Cl      1  UNL1       -0.0822
     20 C         143.5319  142.8256  164.7100 C.ar    1  UNL1        0.0111
     21 C         142.6375  141.7226  165.1932 C.ar    1  UNL1       -0.0015
     22 C         140.0678  138.8421  160.8463 C.ar    1  UNL1        0.0518
     23 C         139.1051  139.3672  159.8229 C.ar    1  UNL1        0.0178
     24 C         139.5058  139.4297  158.3787 C.ar    1  UNL1        0.0388
     25 C         140.8691  138.9669  157.9580 C.ar    1  UNL1        0.1454
     26 C         141.8319  138.4418  158.9814 C.ar    1  UNL1        0.0388
     27 C         141.4312  138.3793  160.4255 C.ar    1  UNL1        0.0178
     28 O         141.2698  139.0293  156.5139 O.3     1  UNL1       -0.4535
     29 C         142.6511  139.4768  156.1374 C.ar    1  UNL1        0.1454
     30 C         143.6015  138.5132  155.4909 C.ar    1  UNL1        0.0398
     31 C         144.9828  138.9607  155.1144 C.ar    1  UNL1        0.0328
     32 C         145.4137  140.3718  155.3845 C.ar    1  UNL1        0.1403
     33 F         146.7950  140.8193  155.0080 F       1  UNL1       -0.2042
     34 C         144.4633  141.3356  156.0310 C.ar    1  UNL1        0.0328
     35 C         143.0820  140.8881  156.4075 C.ar    1  UNL1        0.0398
@<TRIPOS>BOND
     1     1     2    2
     2     2     3   am
     3     3    22    1
     4    22    23   ar
     5    23    24   ar
     6    24    25   ar
     7    25    28    1
     8    28    29    1
     9    29    30   ar
    10    30    31   ar
    11    31    32   ar
    12    32    33    1
    13    32    34   ar
    14    34    35   ar
    15    25    26   ar
    16    26    27   ar
    17     2     4   am
    18     4     5    1
    19     5     6    1
    20     6     7    1
    21     7     8   ar
    22     8     9   ar
    23     9    10   ar
    24    10    11   ar
    25    11    12   ar
    26    12    13    1
    27    13    15    1
    28    15    16   ar
    29    16    17   ar
    30    17    18   ar
    31    18    19    1
    32    18    20   ar
    33    20    21   ar
    34    27    22   ar
    35    13     4    1
    36    21    15   ar
    37    35    29   ar
    38    12     7   ar
    39     3    14    1
@<TRIPOS>MOLECULE
*****
 35 39 0 0 0
SMALL
GASTEIGER

@<TRIPOS>ATOM
      1 O         140.9429  141.4800  162.5251 O.2     1  UNL1       -0.2522
      2 C         141.2292  140.2931  163.3965 C.2     1  UNL1        0.3081
      3 N         141.5723  138.9717  162.7749 N.am    1  UNL1       -0.2681
      4 N         141.1724  140.4275  164.8894 N.am    1  UNL1       -0.2576
      5 C         141.4586  139.2405  165.7607 C.3     1  UNL1        0.1018
      6 C         141.4018  139.3749  167.2536 C.3     1  UNL1        0.0671
      7 C         141.0587  140.6963  167.8752 C.ar    1  UNL1        0.0586
      8 N         141.0019  140.8307  169.3680 N.ar    1  UNL1       -0.2483
      9 C         140.6588  142.1520  169.9896 C.ar    1  UNL1        0.0984
     10 C         140.3725  143.3389  169.1183 C.ar    1  UNL1        0.0204
     11 C         140.4294  143.2046  167.6254 C.ar    1  UNL1        0.0004
     12 C         140.7724  141.8832  167.0039 C.ar    1  UNL1        0.0136
     13 C         140.8293  141.7488  165.5109 C.3     1  UNL1        0.1231
     14 H         141.7602  138.1927  163.3468 H       1  UNL1        0.1564
     15 C         140.5430  142.9357  164.6396 C.ar    1  UNL1        0.0000
     16 C         141.6595  143.8464  164.2222 C.ar    1  UNL1       -0.0015
     17 C         141.3732  145.0334  163.3509 C.ar    1  UNL1        0.0111
     18 C         139.9705  145.3096  162.8970 C.ar    1  UNL1        0.0577
     19 CL        139.6842  146.4966  162.0256 Cl      1  UNL1       -0.0822
     20 C         138.8540  144.3990  163.3144 C.ar    1  UNL1        0.0111
     21 C         139.1403  143.2120  164.1857 C.ar    1  UNL1       -0.0015
     22 C         141.6291  138.8374  161.2821 C.ar    1  UNL1        0.0518
     23 C         142.9390  138.9808  160.5654 C.ar    1  UNL1        0.0178
     24 C         142.9957  138.8464  159.0725 C.ar    1  UNL1        0.0388
     25 C         141.7427  138.5686  158.2963 C.ar    1  UNL1        0.1454
     26 C         140.4328  138.4252  159.0129 C.ar    1  UNL1        0.0388
     27 C         140.3759  138.5595  160.5058 C.ar    1  UNL1        0.0178
     28 O         141.7995  138.4342  156.8034 O.3     1  UNL1       -0.4535
     29 C         142.1191  137.1072  156.1814 C.ar    1  UNL1        0.1454
     30 C         143.5421  136.6398  156.1011 C.ar    1  UNL1        0.0398
     31 C         143.8617  135.3128  155.4791 C.ar    1  UNL1        0.0328
     32 C         142.7583  134.4531  154.9375 C.ar    1  UNL1        0.1403
     33 F         143.0779  133.1261  154.3155 F       1  UNL1       -0.2042
     34 C         141.3352  134.9205  155.0178 C.ar    1  UNL1        0.0328
     35 C         141.0156  136.2475  155.6398 C.ar    1  UNL1        0.0398
@<TRIPOS>BOND
     1     1     2    2
     2     2     3   am
     3     3    22    1
     4    22    23   ar
     5    23    24   ar
     6    24    25   ar
     7    25    28    1
     8    28    29    1
     9    29    30   ar
    10    30    31   ar
    11    31    32   ar
    12    32    33    1
    13    32    34   ar
    14    34    35   ar
    15    25    26   ar
    16    26    27   ar
    17     2     4   am
    18     4     5    1
    19     5     6    1
    20     6     7    1
    21     7     8   ar
    22     8     9   ar
    23     9    10   ar
    24    10    11   ar
    25    11    12   ar
    26    12    13    1
    27    13    15    1
    28    15    16   ar
    29    16    17   ar
    30    17    18   ar
    31    18    19    1
    32    18    20   ar
    33    20    21   ar
    34    27    22   ar
    35    13     4    1
    36    21    15   ar
    37    35    29   ar
    38    12     7   ar
    39     3    14    1
@<TRIPOS>MOLECULE
*****
 35 39 0 0 0
SMALL
GASTEIGER

@<TRIPOS>ATOM
      1 O         141.8138  141.5853  162.7093 O.2     1  UNL1       -0.2522
      2 C         142.8589  140.6395  163.2225 C.2     1  UNL1        0.3081
      3 N         143.9372  140.1438  162.3052 N.am    1  UNL1       -0.2681
      4 N         142.8255  140.1894  164.6530 N.am    1  UNL1       -0.2576
      5 C         143.8706  139.2437  165.1662 C.3     1  UNL1        0.1018
      6 C         143.8373  138.7936  166.5967 C.3     1  UNL1        0.0671
      7 C         142.7589  139.2893  167.5140 C.ar    1  UNL1        0.0586
      8 N         142.7256  138.8392  168.9445 N.ar    1  UNL1       -0.2483
      9 C         141.6473  139.3349  169.8618 C.ar    1  UNL1        0.0984
     10 C         140.6022  140.2807  169.3486 C.ar    1  UNL1        0.0204
     11 C         140.6355  140.7307  167.9181 C.ar    1  UNL1        0.0004
     12 C         141.7139  140.2351  167.0008 C.ar    1  UNL1        0.0136
     13 C         141.7472  140.6851  165.5703 C.3     1  UNL1        0.1231
     14 H         144.6231  139.5231  162.6421 H       1  UNL1        0.1564
     15 C         140.7021  141.6309  165.0571 C.ar    1  UNL1        0.0000
     16 C         140.9315  143.1117  165.1267 C.ar    1  UNL1       -0.0015
     17 C         139.8865  144.0575  164.6135 C.ar    1  UNL1        0.0111
     18 C         138.6120  143.5225  164.0307 C.ar    1  UNL1        0.0577
     19 CL        137.5670  144.4682  163.5175 Cl      1  UNL1       -0.0822
     20 C         138.3827  142.0418  163.9611 C.ar    1  UNL1        0.0111
     21 C         139.4277  141.0960  164.4743 C.ar    1  UNL1       -0.0015
     22 C         143.9705  140.5939  160.8748 C.ar    1  UNL1        0.0518
     23 C         144.3154  142.0157  160.5437 C.ar    1  UNL1        0.0178
     24 C         144.3487  142.4658  159.1131 C.ar    1  UNL1        0.0388
     25 C         144.0370  141.4941  158.0137 C.ar    1  UNL1        0.1454
     26 C         143.6921  140.0723  158.3448 C.ar    1  UNL1        0.0388
     27 C         143.6589  139.6222  159.7753 C.ar    1  UNL1        0.0178
     28 O         144.0703  141.9442  156.5833 O.3     1  UNL1       -0.4535
     29 C         145.3546  141.8911  155.8100 C.ar    1  UNL1        0.1454
     30 C         146.6564  142.1783  156.4975 C.ar    1  UNL1        0.0398
     31 C         147.9406  142.1253  155.7243 C.ar    1  UNL1        0.0328
     32 C         147.9230  141.7851  154.2635 C.ar    1  UNL1        0.1403
     33 F         149.2073  141.7320  153.4902 F       1  UNL1       -0.2042
     34 C         146.6212  141.4978  153.5759 C.ar    1  UNL1        0.0328
     35 C         145.3369  141.5509  154.3492 C.ar    1  UNL1        0.0398
@<TRIPOS>BOND
     1     1     2    2
     2     2     3   am
     3     3    22    1
     4    22    23   ar
     5    23    24   ar
     6    24    25   ar
     7    25    28    1
     8    28    29    1
     9    29    30   ar
    10    30    31   ar
    11    31    32   ar
    12    32    33    1
    13    32    34   ar
    14    34    35   ar
    15    25    26   ar
    16    26    27   ar
    17     2     4   am
    18     4     5    1
    19     5     6    1
    20     6     7    1
    21     7     8   ar
    22     8     9   ar
    23     9    10   ar
    24    10    11   ar
    25    11    12   ar
    26    12    13    1
    27    13    15    1
    28    15    16   ar
    29    16    17   ar
    30    17    18   ar
    31    18    19    1
    32    18    20   ar
    33    20    21   ar
    34    27    22   ar
    35    13     4    1
    36    21    15   ar
    37    35    29   ar
    38    12     7   ar
    39     3    14    1
@<TRIPOS>MOLECULE
*****
 35 39 0 0 0
SMALL
GASTEIGER

@<TRIPOS>ATOM
      1 O         141.4948  141.7911  161.6784 O.2     1  UNL1       -0.2522
      2 C         140.7782  142.7879  162.5403 C.2     1  UNL1        0.3081
      3 N         140.1253  143.9859  161.9172 N.am    1  UNL1       -0.2681
      4 N         140.7146  142.5866  164.0254 N.am    1  UNL1       -0.2576
      5 C         139.9980  143.5834  164.8873 C.3     1  UNL1        0.1018
      6 C         139.9344  143.3822  166.3724 C.3     1  UNL1        0.0671
      7 C         140.5873  142.1841  166.9956 C.ar    1  UNL1        0.0586
      8 N         140.5237  141.9829  168.4806 N.ar    1  UNL1       -0.2483
      9 C         141.1767  140.7849  169.1038 C.ar    1  UNL1        0.0984
     10 C         141.8933  139.7881  168.2419 C.ar    1  UNL1        0.0204
     11 C         141.9569  139.9893  166.7568 C.ar    1  UNL1        0.0004
     12 C         141.3039  141.1873  166.1337 C.ar    1  UNL1        0.0136
     13 C         141.3676  141.3886  164.6486 C.3     1  UNL1        0.1231
     14 H         139.6549  144.6402  162.4829 H       1  UNL1        0.1564
     15 C         142.0842  140.3918  163.7867 C.ar    1  UNL1        0.0000
     16 C         143.5418  140.5739  163.4827 C.ar    1  UNL1       -0.0015
     17 C         144.2584  139.5771  162.6208 C.ar    1  UNL1        0.0111
     18 C         143.5174  138.3982  162.0629 C.ar    1  UNL1        0.0577
     19 CL        144.2340  137.4014  161.2009 Cl      1  UNL1       -0.0822
     20 C         142.0598  138.2162  162.3668 C.ar    1  UNL1        0.0111
     21 C         141.3432  139.2130  163.2287 C.ar    1  UNL1       -0.0015
     22 C         140.1889  144.1871  160.4321 C.ar    1  UNL1        0.0518
     23 C         139.3630  143.3266  159.5226 C.ar    1  UNL1        0.0178
     24 C         139.4267  143.5279  158.0374 C.ar    1  UNL1        0.0388
     25 C         140.3162  144.5896  157.4619 C.ar    1  UNL1        0.1454
     26 C         141.1422  145.4502  158.3715 C.ar    1  UNL1        0.0388
     27 C         141.0785  145.2490  159.8565 C.ar    1  UNL1        0.0178
     28 O         140.3799  144.7909  155.9769 O.3     1  UNL1       -0.4535
     29 C         140.1084  146.1448  155.3912 C.ar    1  UNL1        0.1454
     30 C         139.1718  147.0884  156.0857 C.ar    1  UNL1        0.0398
     31 C         138.9004  148.4424  155.5000 C.ar    1  UNL1        0.0328
     32 C         139.5655  148.8528  154.2197 C.ar    1  UNL1        0.1403
     33 F         139.2940  150.2067  153.6340 F       1  UNL1       -0.2042
     34 C         140.5021  147.9092  153.5251 C.ar    1  UNL1        0.0328
     35 C         140.7736  146.5552  154.1108 C.ar    1  UNL1        0.0398
@<TRIPOS>BOND
     1     1     2    2
     2     2     3   am
     3     3    22    1
     4    22    23   ar
     5    23    24   ar
     6    24    25   ar
     7    25    28    1
     8    28    29    1
     9    29    30   ar
    10    30    31   ar
    11    31    32   ar
    12    32    33    1
    13    32    34   ar
    14    34    35   ar
    15    25    26   ar
    16    26    27   ar
    17     2     4   am
    18     4     5    1
    19     5     6    1
    20     6     7    1
    21     7     8   ar
    22     8     9   ar
    23     9    10   ar
    24    10    11   ar
    25    11    12   ar
    26    12    13    1
    27    13    15    1
    28    15    16   ar
    29    16    17   ar
    30    17    18   ar
    31    18    19    1
    32    18    20   ar
    33    20    21   ar
    34    27    22   ar
    35    13     4    1
    36    21    15   ar
    37    35    29   ar
    38    12     7   ar
    39     3    14    1
