@<TRIPOS>MOLECULE
*****
 28 30 0 0 0
SMALL
GASTEIGER

@<TRIPOS>ATOM
      1 N         142.2970  137.7383  158.5007 N.3     1  UNL1       -0.2677
      2 C         142.9718  137.3124  159.7708 C.3     1  UNL1        0.0940
      3 C         142.4152  137.7413  161.0961 C.3     1  UNL1        0.1123
      4 N         141.1839  138.5960  161.1513 N.am    1  UNL1       -0.2611
      5 C         140.6273  139.0248  162.4765 C.2     1  UNL1        0.3078
      6 O         139.3959  139.8795  162.5317 O.2     1  UNL1       -0.2522
      7 N         141.3022  138.5989  163.7466 N.am    1  UNL1       -0.2681
      8 C         140.5090  139.0219  159.8812 C.3     1  UNL1        0.1123
      9 C         141.0655  138.5931  158.5559 C.3     1  UNL1        0.0940
     10 H         142.1104  138.0379  163.7104 H       1  UNL1        0.1564
     11 C         140.7456  139.0277  165.0719 C.ar    1  UNL1        0.0525
     12 C         141.5633  139.8933  165.9841 C.ar    1  UNL1        0.0156
     13 C         141.0068  140.3222  167.3094 C.ar    1  UNL1        0.0135
     14 C         139.6326  139.8854  167.7224 C.ar    1  UNL1        0.0683
     15 CL        139.0760  140.3143  169.0478 Cl      1  UNL1       -0.0814
     16 C         138.8149  139.0198  166.8103 C.ar    1  UNL1        0.0694
     17 CL        137.4406  138.5831  167.2234 Cl      1  UNL1       -0.0813
     18 C         139.3714  138.5910  165.4850 C.ar    1  UNL1        0.0270
     19 C         142.8535  137.3095  157.1754 C.3     1  UNL1        0.1035
     20 N         143.0402  133.3817  156.6394 N.3     1  UNL1       -0.2698
     21 C         141.9804  133.1873  155.5960 C.3     1  UNL1        0.1046
     22 C         141.2115  134.3669  155.0790 C.3     1  UNL1        0.1594
     23 O         141.5026  135.7410  155.6054 O.3     1  UNL1       -0.3519
     24 C         142.5624  135.9354  156.6489 C.3     1  UNL1        0.1471
     25 C         143.3312  134.7557  157.1659 C.3     1  UNL1        0.1035
     26 C         143.2418  130.8199  157.0224 C.3     1  UNL1        0.0173
     27 C         143.8090  132.2020  157.1564 C.3     1  UNL1        0.0577
     28 C         145.1451  132.4044  157.8075 C.3     1  UNL1        0.0173
@<TRIPOS>BOND
     1    26    27    1
     2    27    28    1
     3    27    20    1
     4    20    21    1
     5    21    22    1
     6    22    23    1
     7    23    24    1
     8    24    19    1
     9    19     1    1
    10     1     2    1
    11     2     3    1
    12     3     4    1
    13     4     5   am
    14     5     6    2
    15     5     7   am
    16     7    11    1
    17    11    12   ar
    18    12    13   ar
    19    13    14   ar
    20    14    15    1
    21    14    16   ar
    22    16    17    1
    23    16    18   ar
    24     4     8    1
    25     8     9    1
    26    24    25    1
    27    25    20    1
    28     9     1    1
    29    18    11   ar
    30     7    10    1
@<TRIPOS>MOLECULE
*****
 28 30 0 0 0
SMALL
GASTEIGER

@<TRIPOS>ATOM
      1 N         142.3384  138.3038  159.0379 N.3     1  UNL1       -0.2677
      2 C         141.1026  139.0485  159.4480 C.3     1  UNL1        0.0940
      3 C         140.7763  139.2168  160.9025 C.3     1  UNL1        0.1123
      4 N         141.6858  138.6403  161.9467 N.am    1  UNL1       -0.2611
      5 C         141.3595  138.8086  163.4010 C.2     1  UNL1        0.3078
      6 O         142.2691  138.2321  164.4454 O.2     1  UNL1       -0.2522
      7 N         140.1237  139.5533  163.8112 N.am    1  UNL1       -0.2681
      8 C         142.9216  137.8956  161.5366 C.3     1  UNL1        0.1123
      9 C         143.2479  137.7273  160.0822 C.3     1  UNL1        0.0940
     10 H         139.5268  139.9316  163.1258 H       1  UNL1        0.1564
     11 C         139.7975  139.7215  165.2656 C.ar    1  UNL1        0.0525
     12 C         138.7341  138.8738  165.8986 C.ar    1  UNL1        0.0156
     13 C         138.4078  139.0420  167.3530 C.ar    1  UNL1        0.0135
     14 C         139.1449  140.0579  168.1743 C.ar    1  UNL1        0.0683
     15 CL        138.8186  140.2261  169.6288 Cl      1  UNL1       -0.0814
     16 C         140.2082  140.9056  167.5413 C.ar    1  UNL1        0.0694
     17 CL        140.9453  141.9215  168.3628 Cl      1  UNL1       -0.0813
     18 C         140.5345  140.7374  166.0870 C.ar    1  UNL1        0.0270
     19 C         142.6647  138.1356  157.5836 C.3     1  UNL1        0.1035
     20 N         142.6066  134.3121  156.5214 N.3     1  UNL1       -0.2698
     21 C         141.5531  134.3305  155.4538 C.3     1  UNL1        0.1046
     22 C         140.8702  135.6172  155.0961 C.3     1  UNL1        0.1594
     23 O         141.2407  136.8855  155.8060 O.3     1  UNL1       -0.3519
     24 C         142.2941  136.8672  156.8736 C.3     1  UNL1        0.1471
     25 C         142.9771  135.5805  157.2313 C.3     1  UNL1        0.1035
     26 C         144.5157  133.0421  157.7430 C.3     1  UNL1        0.0173
     27 C         143.2896  133.0254  156.8791 C.3     1  UNL1        0.0577
     28 C         142.7465  131.7221  156.3730 C.3     1  UNL1        0.0173
@<TRIPOS>BOND
     1    26    27    1
     2    27    28    1
     3    27    20    1
     4    20    21    1
     5    21    22    1
     6    22    23    1
     7    23    24    1
     8    24    19    1
     9    19     1    1
    10     1     2    1
    11     2     3    1
    12     3     4    1
    13     4     5   am
    14     5     6    2
    15     5     7   am
    16     7    11    1
    17    11    12   ar
    18    12    13   ar
    19    13    14   ar
    20    14    15    1
    21    14    16   ar
    22    16    17    1
    23    16    18   ar
    24     4     8    1
    25     8     9    1
    26    24    25    1
    27    25    20    1
    28     9     1    1
    29    18    11   ar
    30     7    10    1
@<TRIPOS>MOLECULE
*****
 28 30 0 0 0
SMALL
GASTEIGER

@<TRIPOS>ATOM
      1 N         141.3189  144.6096  159.8835 N.3     1  UNL1       -0.2677
      2 C         142.0232  143.4517  160.5264 C.3     1  UNL1        0.0940
      3 C         141.6358  143.0109  161.9069 C.3     1  UNL1        0.1123
      4 N         140.5441  143.7279  162.6444 N.am    1  UNL1       -0.2611
      5 C         140.1567  143.2871  164.0248 C.2     1  UNL1        0.3078
      6 O         139.0649  144.0041  164.7624 O.2     1  UNL1       -0.2522
      7 N         140.8611  142.1292  164.6677 N.am    1  UNL1       -0.2681
      8 C         139.8397  144.8857  162.0016 C.3     1  UNL1        0.1123
      9 C         140.2271  145.3266  160.6211 C.3     1  UNL1        0.0940
     10 H         141.5776  141.6586  164.1836 H       1  UNL1        0.1564
     11 C         140.4736  141.6884  166.0482 C.ar    1  UNL1        0.0525
     12 C         139.7823  140.3724  166.2489 C.ar    1  UNL1        0.0156
     13 C         139.3949  139.9316  167.6293 C.ar    1  UNL1        0.0135
     14 C         139.6988  140.8067  168.8090 C.ar    1  UNL1        0.0683
     15 CL        139.3113  140.3659  170.1894 Cl      1  UNL1       -0.0814
     16 C         140.3901  142.1227  168.6083 C.ar    1  UNL1        0.0694
     17 CL        140.6940  142.9979  169.7881 Cl      1  UNL1       -0.0813
     18 C         140.7775  142.5635  167.2279 C.ar    1  UNL1        0.0270
     19 C         141.7063  145.0504  158.5031 C.3     1  UNL1        0.1035
     20 N         139.4718  146.8133  155.7374 N.3     1  UNL1       -0.2698
     21 C         138.5364  145.6980  155.3754 C.3     1  UNL1        0.1046
     22 C         138.6576  144.3667  156.0560 C.3     1  UNL1        0.1594
     23 O         139.7142  144.1509  157.0986 O.3     1  UNL1       -0.3519
     24 C         140.6496  145.2662  157.4605 C.3     1  UNL1        0.1471
     25 C         140.5284  146.5974  156.7800 C.3     1  UNL1        0.1035
     26 C         139.9655  148.3545  153.7050 C.3     1  UNL1        0.0173
     27 C         139.3505  148.1445  155.0568 C.3     1  UNL1        0.0577
     28 C         138.6143  149.2657  155.7281 C.3     1  UNL1        0.0173
@<TRIPOS>BOND
     1    26    27    1
     2    27    28    1
     3    27    20    1
     4    20    21    1
     5    21    22    1
     6    22    23    1
     7    23    24    1
     8    24    19    1
     9    19     1    1
    10     1     2    1
    11     2     3    1
    12     3     4    1
    13     4     5   am
    14     5     6    2
    15     5     7   am
    16     7    11    1
    17    11    12   ar
    18    12    13   ar
    19    13    14   ar
    20    14    15    1
    21    14    16   ar
    22    16    17    1
    23    16    18   ar
    24     4     8    1
    25     8     9    1
    26    24    25    1
    27    25    20    1
    28     9     1    1
    29    18    11   ar
    30     7    10    1
@<TRIPOS>MOLECULE
*****
 28 30 0 0 0
SMALL
GASTEIGER

@<TRIPOS>ATOM
      1 N         141.0633  145.0442  160.0765 N.3     1  UNL1       -0.2677
      2 C         141.7738  143.8440  160.6286 C.3     1  UNL1        0.0940
      3 C         141.4365  143.3376  161.9997 C.3     1  UNL1        0.1123
      4 N         140.3886  144.0314  162.8186 N.am    1  UNL1       -0.2611
      5 C         140.0513  143.5249  164.1896 C.2     1  UNL1        0.3078
      6 O         139.0034  144.2187  165.0087 O.2     1  UNL1       -0.2522
      7 N         140.7619  142.3248  164.7417 N.am    1  UNL1       -0.2681
      8 C         139.6781  145.2315  162.2666 C.3     1  UNL1        0.1123
      9 C         140.0154  145.7379  160.8956 C.3     1  UNL1        0.0940
     10 H         141.4496  141.8695  164.2042 H       1  UNL1        0.1564
     11 C         140.4245  141.8184  166.1128 C.ar    1  UNL1        0.0525
     12 C         139.7423  140.4925  166.2757 C.ar    1  UNL1        0.0156
     13 C         139.4050  139.9860  167.6467 C.ar    1  UNL1        0.0135
     14 C         139.7498  140.8055  168.8548 C.ar    1  UNL1        0.0683
     15 CL        139.4125  140.2991  170.2259 Cl      1  UNL1       -0.0814
     16 C         140.4320  142.1314  168.6918 C.ar    1  UNL1        0.0694
     17 CL        140.7769  142.9509  169.9000 Cl      1  UNL1       -0.0813
     18 C         140.7694  142.6379  167.3209 C.ar    1  UNL1        0.0270
     19 C         141.4006  145.5506  158.7055 C.3     1  UNL1        0.1035
     20 N         138.7648  144.0871  156.1246 N.3     1  UNL1       -0.2698
     21 C         138.3411  145.3374  155.4125 C.3     1  UNL1        0.1046
     22 C         138.9372  146.6588  155.7979 C.3     1  UNL1        0.1594
     23 O         139.9570  146.7299  156.8956 O.3     1  UNL1       -0.3519
     24 C         140.3807  145.4796  157.6078 C.3     1  UNL1        0.1471
     25 C         139.7846  144.1582  157.2223 C.3     1  UNL1        0.1035
     26 C         136.9606  142.2484  156.4623 C.3     1  UNL1        0.0173
     27 C         138.1686  142.7657  155.7391 C.3     1  UNL1        0.0577
     28 C         138.7805  141.9617  154.6305 C.3     1  UNL1        0.0173
@<TRIPOS>BOND
     1    26    27    1
     2    27    28    1
     3    27    20    1
     4    20    21    1
     5    21    22    1
     6    22    23    1
     7    23    24    1
     8    24    19    1
     9    19     1    1
    10     1     2    1
    11     2     3    1
    12     3     4    1
    13     4     5   am
    14     5     6    2
    15     5     7   am
    16     7    11    1
    17    11    12   ar
    18    12    13   ar
    19    13    14   ar
    20    14    15    1
    21    14    16   ar
    22    16    17    1
    23    16    18   ar
    24     4     8    1
    25     8     9    1
    26    24    25    1
    27    25    20    1
    28     9     1    1
    29    18    11   ar
    30     7    10    1
@<TRIPOS>MOLECULE
*****
 28 30 0 0 0
SMALL
GASTEIGER

@<TRIPOS>ATOM
      1 N         143.4997  142.0855  160.3080 N.3     1  UNL1       -0.2677
      2 C         142.6306  140.9043  160.6235 C.3     1  UNL1        0.0940
      3 C         142.5510  139.7541  159.6639 C.3     1  UNL1        0.1123
      4 N         143.3403  139.7851  158.3888 N.am    1  UNL1       -0.2611
      5 C         143.2606  138.6350  157.4293 C.2     1  UNL1        0.3078
      6 O         144.0500  138.6660  156.1541 O.2     1  UNL1       -0.2522
      7 N         142.3916  137.4538  157.7448 N.am    1  UNL1       -0.2681
      8 C         144.2094  140.9663  158.0732 C.3     1  UNL1        0.1123
      9 C         144.2891  142.1165  159.0328 C.3     1  UNL1        0.0940
     10 H         141.8735  137.4335  158.5817 H       1  UNL1        0.1564
     11 C         142.3119  136.3036  156.7852 C.ar    1  UNL1        0.0525
     12 C         141.2350  136.2709  155.7415 C.ar    1  UNL1        0.0156
     13 C         141.1553  135.1208  154.7819 C.ar    1  UNL1        0.0135
     14 C         142.1525  134.0034  154.8660 C.ar    1  UNL1        0.0683
     15 CL        142.0728  132.8532  153.9064 Cl      1  UNL1       -0.0814
     16 C         143.2294  134.0362  155.9097 C.ar    1  UNL1        0.0694
     17 CL        144.2266  132.9187  155.9938 Cl      1  UNL1       -0.0813
     18 C         143.3091  135.1863  156.8693 C.ar    1  UNL1        0.0270
     19 C         143.5794  143.2356  161.2675 C.3     1  UNL1        0.1035
     20 N         140.4843  144.3852  163.4696 N.3     1  UNL1       -0.2698
     21 C         139.8263  145.3651  162.5440 C.3     1  UNL1        0.1046
     22 C         140.4193  145.6352  161.1930 C.3     1  UNL1        0.1594
     23 O         141.6703  144.9254  160.7674 O.3     1  UNL1       -0.3519
     24 C         142.3283  143.9455  161.6930 C.3     1  UNL1        0.1471
     25 C         141.7353  143.6754  163.0441 C.3     1  UNL1        0.1035
     26 C         140.5196  143.0970  165.7255 C.3     1  UNL1        0.0173
     27 C         139.8914  144.1151  164.8207 C.3     1  UNL1        0.0577
     28 C         138.6701  144.8630  165.2669 C.3     1  UNL1        0.0173
@<TRIPOS>BOND
     1    26    27    1
     2    27    28    1
     3    27    20    1
     4    20    21    1
     5    21    22    1
     6    22    23    1
     7    23    24    1
     8    24    19    1
     9    19     1    1
    10     1     2    1
    11     2     3    1
    12     3     4    1
    13     4     5   am
    14     5     6    2
    15     5     7   am
    16     7    11    1
    17    11    12   ar
    18    12    13   ar
    19    13    14   ar
    20    14    15    1
    21    14    16   ar
    22    16    17    1
    23    16    18   ar
    24     4     8    1
    25     8     9    1
    26    24    25    1
    27    25    20    1
    28     9     1    1
    29    18    11   ar
    30     7    10    1
@<TRIPOS>MOLECULE
*****
 28 30 0 0 0
SMALL
GASTEIGER

@<TRIPOS>ATOM
      1 N         141.4613  137.1904  157.0063 N.3     1  UNL1       -0.2677
      2 C         140.0473  137.6611  157.1765 C.3     1  UNL1        0.0940
      3 C         139.7035  138.6202  158.2774 C.3     1  UNL1        0.1123
      4 N         140.7737  139.1085  159.2081 N.am    1  UNL1       -0.2611
      5 C         140.4299  140.0675  160.3090 C.2     1  UNL1        0.3078
      6 O         141.5001  140.5559  161.2398 O.2     1  UNL1       -0.2522
      7 N         139.0159  140.5383  160.4792 N.am    1  UNL1       -0.2681
      8 C         142.1877  138.6378  159.0379 C.3     1  UNL1        0.1123
      9 C         142.5315  137.6787  157.9370 C.3     1  UNL1        0.0940
     10 H         138.3134  140.2178  159.8684 H       1  UNL1        0.1564
     11 C         138.6721  141.4974  161.5802 C.ar    1  UNL1        0.0525
     12 C         137.9565  141.0084  162.8045 C.ar    1  UNL1        0.0156
     13 C         137.6127  141.9674  163.9054 C.ar    1  UNL1        0.0135
     14 C         137.9845  143.4153  163.7820 C.ar    1  UNL1        0.0683
     15 CL        137.6407  144.3744  164.8830 Cl      1  UNL1       -0.0814
     16 C         138.7001  143.9043  162.5577 C.ar    1  UNL1        0.0694
     17 CL        139.0718  145.3523  162.4344 Cl      1  UNL1       -0.0813
     18 C         139.0438  142.9453  161.4568 C.ar    1  UNL1        0.0270
     19 C         141.8051  136.2313  155.9054 C.3     1  UNL1        0.1035
     20 N         142.2601  132.2893  155.9609 N.3     1  UNL1       -0.2698
     21 C         143.4223  132.1512  156.8990 C.3     1  UNL1        0.1046
     22 C         144.0454  133.3732  157.5060 C.3     1  UNL1        0.1594
     23 O         143.5064  134.7333  157.1748 O.3     1  UNL1       -0.3519
     24 C         142.3442  134.8713  156.2366 C.3     1  UNL1        0.1471
     25 C         141.7210  133.6493  155.6297 C.3     1  UNL1        0.1035
     26 C         140.4407  131.2012  154.4589 C.3     1  UNL1        0.0173
     27 C         141.6369  131.0673  155.3539 C.3     1  UNL1        0.0577
     28 C         142.2100  129.7113  155.6420 C.3     1  UNL1        0.0173
@<TRIPOS>BOND
     1    26    27    1
     2    27    28    1
     3    27    20    1
     4    20    21    1
     5    21    22    1
     6    22    23    1
     7    23    24    1
     8    24    19    1
     9    19     1    1
    10     1     2    1
    11     2     3    1
    12     3     4    1
    13     4     5   am
    14     5     6    2
    15     5     7   am
    16     7    11    1
    17    11    12   ar
    18    12    13   ar
    19    13    14   ar
    20    14    15    1
    21    14    16   ar
    22    16    17    1
    23    16    18   ar
    24     4     8    1
    25     8     9    1
    26    24    25    1
    27    25    20    1
    28     9     1    1
    29    18    11   ar
    30     7    10    1
@<TRIPOS>MOLECULE
*****
 28 30 0 0 0
SMALL
GASTEIGER

@<TRIPOS>ATOM
      1 N         142.1211  141.1752  159.2382 N.3     1  UNL1       -0.2677
      2 C         141.2157  139.9816  159.3133 C.3     1  UNL1        0.0940
      3 C         141.5242  138.7544  158.5078 C.3     1  UNL1        0.1123
      4 N         142.7382  138.7207  157.6274 N.am    1  UNL1       -0.2611
      5 C         143.0467  137.4934  156.8221 C.2     1  UNL1        0.3078
      6 O         144.2607  137.4597  155.9416 O.2     1  UNL1       -0.2522
      7 N         142.1413  136.2999  156.8971 N.am    1  UNL1       -0.2681
      8 C         143.6436  139.9142  157.5524 C.3     1  UNL1        0.1123
      9 C         143.3351  141.1415  158.3577 C.3     1  UNL1        0.0940
     10 H         141.3445  136.3220  157.4750 H       1  UNL1        0.1564
     11 C         142.4499  135.0726  156.0917 C.ar    1  UNL1        0.0525
     12 C         141.6890  134.7929  154.8296 C.ar    1  UNL1        0.0156
     13 C         141.9975  133.5656  154.0242 C.ar    1  UNL1        0.0135
     14 C         143.0669  132.6182  154.4809 C.ar    1  UNL1        0.0683
     15 CL        143.3755  131.3909  153.6755 Cl      1  UNL1       -0.0814
     16 C         143.8278  132.8979  155.7429 C.ar    1  UNL1        0.0694
     17 CL        144.8973  131.9504  156.1996 Cl      1  UNL1       -0.0813
     18 C         143.5193  134.1251  156.5483 C.ar    1  UNL1        0.0270
     19 C         141.8125  142.4024  160.0436 C.3     1  UNL1        0.1035
     20 N         143.6855  141.9610  163.5145 N.3     1  UNL1       -0.2698
     21 C         144.2260  143.3446  163.7229 C.3     1  UNL1        0.1046
     22 C         143.9620  144.4142  162.7049 C.3     1  UNL1        0.1594
     23 O         143.1576  144.1001  161.4784 O.3     1  UNL1       -0.3519
     24 C         142.6171  142.7165  161.2700 C.3     1  UNL1        0.1471
     25 C         142.8810  141.6470  162.2881 C.3     1  UNL1        0.1035
     26 C         143.1600  140.8584  165.8075 C.3     1  UNL1        0.0173
     27 C         143.9494  140.8915  164.5325 C.3     1  UNL1        0.0577
     28 C         145.0028  139.8550  164.2755 C.3     1  UNL1        0.0173
@<TRIPOS>BOND
     1    26    27    1
     2    27    28    1
     3    27    20    1
     4    20    21    1
     5    21    22    1
     6    22    23    1
     7    23    24    1
     8    24    19    1
     9    19     1    1
    10     1     2    1
    11     2     3    1
    12     3     4    1
    13     4     5   am
    14     5     6    2
    15     5     7   am
    16     7    11    1
    17    11    12   ar
    18    12    13   ar
    19    13    14   ar
    20    14    15    1
    21    14    16   ar
    22    16    17    1
    23    16    18   ar
    24     4     8    1
    25     8     9    1
    26    24    25    1
    27    25    20    1
    28     9     1    1
    29    18    11   ar
    30     7    10    1
@<TRIPOS>MOLECULE
*****
 28 30 0 0 0
SMALL
GASTEIGER

@<TRIPOS>ATOM
      1 N         140.5163  145.3128  155.7236 N.3     1  UNL1       -0.2677
      2 C         141.6395  145.9370  156.4974 C.3     1  UNL1        0.0940
      3 C         141.9371  145.4740  157.8928 C.3     1  UNL1        0.1123
      4 N         141.1113  144.3869  158.5144 N.am    1  UNL1       -0.2611
      5 C         141.4089  143.9240  159.9098 C.2     1  UNL1        0.3078
      6 O         140.5832  142.8369  160.5315 O.2     1  UNL1       -0.2522
      7 N         142.5322  144.5481  160.6836 N.am    1  UNL1       -0.2681
      8 C         139.9881  143.7628  157.7407 C.3     1  UNL1        0.1123
      9 C         139.6905  144.2257  156.3453 C.3     1  UNL1        0.0940
     10 H         143.0741  145.2616  160.2756 H       1  UNL1        0.1564
     11 C         142.8297  144.0851  162.0790 C.ar    1  UNL1        0.0525
     12 C         141.8939  144.4304  163.1993 C.ar    1  UNL1        0.0156
     13 C         142.1914  143.9675  164.5947 C.ar    1  UNL1        0.0135
     14 C         143.4247  143.1593  164.8698 C.ar    1  UNL1        0.0683
     15 CL        143.7222  142.6963  166.2652 Cl      1  UNL1       -0.0814
     16 C         144.3605  142.8140  163.7495 C.ar    1  UNL1        0.0694
     17 CL        145.5939  142.0058  164.0247 Cl      1  UNL1       -0.0813
     18 C         144.0630  143.2769  162.3541 C.ar    1  UNL1        0.0270
     19 C         140.2187  145.7757  154.3282 C.3     1  UNL1        0.1035
     20 N         139.4218  149.6518  154.6299 N.3     1  UNL1       -0.2698
     21 C         140.0944  150.1764  153.3961 C.3     1  UNL1        0.1046
     22 C         140.8084  149.2341  152.4729 C.3     1  UNL1        0.1594
     23 O         140.8499  147.7672  152.7836 O.3     1  UNL1       -0.3519
     24 C         140.1773  147.2427  154.0175 C.3     1  UNL1        0.1471
     25 C         139.4633  148.1850  154.9406 C.3     1  UNL1        0.1035
     26 C         138.2460  150.1196  156.8989 C.3     1  UNL1        0.0173
     27 C         138.7078  150.5942  155.5531 C.3     1  UNL1        0.0577
     28 C         138.4556  152.0111  155.1303 C.3     1  UNL1        0.0173
@<TRIPOS>BOND
     1    26    27    1
     2    27    28    1
     3    27    20    1
     4    20    21    1
     5    21    22    1
     6    22    23    1
     7    23    24    1
     8    24    19    1
     9    19     1    1
    10     1     2    1
    11     2     3    1
    12     3     4    1
    13     4     5   am
    14     5     6    2
    15     5     7   am
    16     7    11    1
    17    11    12   ar
    18    12    13   ar
    19    13    14   ar
    20    14    15    1
    21    14    16   ar
    22    16    17    1
    23    16    18   ar
    24     4     8    1
    25     8     9    1
    26    24    25    1
    27    25    20    1
    28     9     1    1
    29    18    11   ar
    30     7    10    1
@<TRIPOS>MOLECULE
*****
 28 30 0 0 0
SMALL
GASTEIGER

@<TRIPOS>ATOM
      1 N         139.8052  143.8283  164.1213 N.3     1  UNL1       -0.2677
      2 C         140.7368  144.8528  163.5445 C.3     1  UNL1        0.0940
      3 C         140.8019  145.0557  162.0597 C.3     1  UNL1        0.1123
      4 N         139.9355  144.2342  161.1517 N.am    1  UNL1       -0.2611
      5 C         140.0006  144.4372  159.6670 C.2     1  UNL1        0.3078
      6 O         139.1342  143.6157  158.7590 O.2     1  UNL1       -0.2522
      7 N         140.9322  145.4616  159.0902 N.am    1  UNL1       -0.2681
      8 C         139.0039  143.2098  161.7285 C.3     1  UNL1        0.1123
      9 C         138.9387  143.0068  163.2133 C.3     1  UNL1        0.0940
     10 H         141.5009  146.0008  159.6861 H       1  UNL1        0.1564
     11 C         140.9974  145.6645  157.6054 C.ar    1  UNL1        0.0525
     12 C         142.0580  144.9743  156.7999 C.ar    1  UNL1        0.0156
     13 C         142.1231  145.1772  155.3151 C.ar    1  UNL1        0.0135
     14 C         141.1277  146.0703  154.6359 C.ar    1  UNL1        0.0683
     15 CL        141.1928  146.2732  153.1510 Cl      1  UNL1       -0.0814
     16 C         140.0671  146.7605  155.4413 C.ar    1  UNL1        0.0694
     17 CL        139.0716  147.6536  154.7620 Cl      1  UNL1       -0.0813
     18 C         140.0019  146.5576  156.9261 C.ar    1  UNL1        0.0270
     19 C         139.7401  143.6254  165.6061 C.3     1  UNL1        0.1035
     20 N         141.2207  140.9927  168.1804 N.3     1  UNL1       -0.2698
     21 C         142.5954  140.7873  167.6166 C.3     1  UNL1        0.1046
     22 C         143.0184  141.5280  166.3827 C.3     1  UNL1        0.1594
     23 O         142.0666  142.4740  165.7125 O.3     1  UNL1       -0.3519
     24 C         140.6919  142.6793  166.2762 C.3     1  UNL1        0.1471
     25 C         140.2689  141.9387  167.5102 C.3     1  UNL1        0.1035
     26 C         139.4078  140.4227  169.9519 C.3     1  UNL1        0.0173
     27 C         140.7977  140.2521  169.4143 C.3     1  UNL1        0.0577
     28 C         141.7646  139.3409  170.1106 C.3     1  UNL1        0.0173
@<TRIPOS>BOND
     1    26    27    1
     2    27    28    1
     3    27    20    1
     4    20    21    1
     5    21    22    1
     6    22    23    1
     7    23    24    1
     8    24    19    1
     9    19     1    1
    10     1     2    1
    11     2     3    1
    12     3     4    1
    13     4     5   am
    14     5     6    2
    15     5     7   am
    16     7    11    1
    17    11    12   ar
    18    12    13   ar
    19    13    14   ar
    20    14    15    1
    21    14    16   ar
    22    16    17    1
    23    16    18   ar
    24     4     8    1
    25     8     9    1
    26    24    25    1
    27    25    20    1
    28     9     1    1
    29    18    11   ar
    30     7    10    1
