@<TRIPOS>MOLECULE
*****
 33 36 0 0 0
SMALL
GASTEIGER

@<TRIPOS>ATOM
      1 N         140.2246  138.9966  159.6781 N.3     1  UNL1       -0.2724
      2 C         139.7083  138.6834  158.3050 C.3     1  UNL1        0.0758
      3 C         140.5902  137.9834  157.3138 C.3     1  UNL1        0.0609
      4 C         141.9882  137.5966  157.6958 C.3     1  UNL1        0.1687
      5 C         142.5044  137.9097  159.0689 C.3     1  UNL1        0.0609
      6 C         141.6226  138.6097  160.0601 C.3     1  UNL1        0.0758
      7 C         139.3428  139.6966  160.6693 C.3     1  UNL1        0.0722
      8 N         140.4555  139.7458  165.0293 N.pl3   1  UNL1       -0.2932
      9 C         139.6196  138.6273  164.4812 C.3     1  UNL1        0.0922
     10 C         139.2487  138.6109  163.0278 C.3     1  UNL1        0.0229
     11 C         139.7137  139.7129  162.1226 C.3     1  UNL1        0.0194
     12 C         140.5496  140.8314  162.6708 C.3     1  UNL1        0.0229
     13 C         140.9204  140.8478  164.1241 C.3     1  UNL1        0.0922
     14 CA        140.1902  140.2061  168.9622 C.ar    1  UNL1        0.0966
     15 C         141.5681  139.7951  169.3893 C.ar    1  UNL1        0.0204
     16 C         142.5751  139.3676  168.3630 C.ar    1  UNL1        0.0044
     17 C         142.2043  139.3511  166.9097 C.ar    1  UNL1        0.0343
     18 C         140.8264  139.7622  166.4827 C.ar    1  UNL1        0.1317
     19 N         139.8194  140.1897  167.5089 N.ar    1  UNL1       -0.2295
     20 O         138.1211  139.6761  170.4413 O.co2   1  UNL1       -0.5430
     21 C         139.1832  140.6336  169.9884 C.2     1  UNL1        0.0905
     22 OXT       139.2383  142.0185  170.5619 O.co2   1  UNL1       -0.5430
     23 O         142.8700  136.8966  156.7046 O.3     1  UNL1       -0.4790
     24 C         142.7841  135.4076  156.5448 C.ar    1  UNL1        0.1392
     25 C         141.7109  134.8060  155.6868 C.ar    1  UNL1        0.0367
     26 C         141.6250  133.3170  155.5269 C.ar    1  UNL1        0.0021
     27 C         142.6124  132.4296  156.2251 C.ar    1  UNL1        0.0177
     28 C         143.6857  133.0312  157.0832 C.ar    1  UNL1        0.0590
     29 CL        144.6731  132.1438  157.7814 Cl      1  UNL1       -0.0824
     30 C         143.7716  134.5202  157.2430 C.ar    1  UNL1        0.0480
     31 C         142.5266  130.9406  156.0653 C.3     1  UNL1        0.1644
     32 O         141.4766  130.3409  155.1778 O.3     1  UNL1       -0.3772
     33 H         140.5988  130.5148  155.5523 H       1  UNL1        0.2109
@<TRIPOS>UNITY_ATOM_ATTR
20 1
charge -1
@<TRIPOS>BOND
     1    20    21   ar
     2    21    22   ar
     3    21    14    1
     4    14    15   ar
     5    15    16   ar
     6    16    17   ar
     7    17    18   ar
     8    18     8    1
     9     8     9    1
    10     9    10    1
    11    10    11    1
    12    11     7    1
    13     7     1    1
    14     1     2    1
    15     2     3    1
    16     3     4    1
    17     4    23    1
    18    23    24    1
    19    24    25   ar
    20    25    26   ar
    21    26    27   ar
    22    27    31    1
    23    31    32    1
    24    27    28   ar
    25    28    29    1
    26    28    30   ar
    27     4     5    1
    28     5     6    1
    29    11    12    1
    30    12    13    1
    31    18    19   ar
    32    19    14   ar
    33    13     8    1
    34     6     1    1
    35    30    24   ar
    36    32    33    1
@<TRIPOS>MOLECULE
*****
 33 36 0 0 0
SMALL
GASTEIGER

@<TRIPOS>ATOM
      1 N         143.7656  140.2214  162.8888 N.3     1  UNL1       -0.2724
      2 C         144.8143  139.5809  163.7489 C.3     1  UNL1        0.0758
      3 C         144.5081  139.2419  165.1777 C.3     1  UNL1        0.0609
      4 C         143.1531  139.5434  165.7463 C.3     1  UNL1        0.1687
      5 C         142.1044  140.1839  164.8861 C.3     1  UNL1        0.0609
      6 C         142.4106  140.5229  163.4573 C.3     1  UNL1        0.0758
      7 C         144.0718  140.5604  161.4600 C.3     1  UNL1        0.0722
      8 N         142.7047  137.8278  158.1565 N.pl3   1  UNL1       -0.2932
      9 C         142.9761  137.2740  159.5238 C.3     1  UNL1        0.0922
     10 C         143.4318  138.1849  160.6250 C.3     1  UNL1        0.0229
     11 C         143.6161  139.6496  160.3589 C.3     1  UNL1        0.0194
     12 C         143.3446  140.2033  158.9915 C.3     1  UNL1        0.0229
     13 C         142.8889  139.2925  157.8903 C.3     1  UNL1        0.0922
     14 CA        142.2475  134.5767  155.9268 C.ar    1  UNL1        0.0966
     15 C         141.3376  135.0952  154.8529 C.ar    1  UNL1        0.0204
     16 C         140.8833  136.5245  154.8802 C.ar    1  UNL1        0.0044
     17 C         141.3390  137.4354  155.9814 C.ar    1  UNL1        0.0343
     18 C         142.2489  136.9169  157.0552 C.ar    1  UNL1        0.1317
     19 N         142.7032  135.4876  157.0279 N.ar    1  UNL1       -0.2295
     20 O         142.6025  132.3052  157.1367 O.co2   1  UNL1       -0.5430
     21 C         142.7017  133.1474  155.8995 C.2     1  UNL1        0.0905
     22 OXT       143.2551  132.5604  154.6349 O.co2   1  UNL1       -0.5430
     23 O         142.8470  139.2044  167.1750 O.3     1  UNL1       -0.4790
     24 C         142.1069  140.1844  168.0363 C.ar    1  UNL1        0.1392
     25 C         142.7293  141.5072  168.3722 C.ar    1  UNL1        0.0367
     26 C         141.9893  142.4871  169.2335 C.ar    1  UNL1        0.0021
     27 C         140.6268  142.1444  169.7590 C.ar    1  UNL1        0.0177
     28 C         140.0043  140.8216  169.4232 C.ar    1  UNL1        0.0590
     29 CL        138.6419  140.4788  169.9487 Cl      1  UNL1       -0.0824
     30 C         140.7444  139.8416  168.5618 C.ar    1  UNL1        0.0480
     31 C         139.8868  143.1244  170.6204 C.3     1  UNL1        0.1644
     32 O         139.9799  144.5939  170.3346 O.3     1  UNL1       -0.3772
     33 H         140.8886  144.8963  170.4886 H       1  UNL1        0.2109
@<TRIPOS>UNITY_ATOM_ATTR
20 1
charge -1
@<TRIPOS>BOND
     1    20    21   ar
     2    21    22   ar
     3    21    14    1
     4    14    15   ar
     5    15    16   ar
     6    16    17   ar
     7    17    18   ar
     8    18     8    1
     9     8     9    1
    10     9    10    1
    11    10    11    1
    12    11     7    1
    13     7     1    1
    14     1     2    1
    15     2     3    1
    16     3     4    1
    17     4    23    1
    18    23    24    1
    19    24    25   ar
    20    25    26   ar
    21    26    27   ar
    22    27    31    1
    23    31    32    1
    24    27    28   ar
    25    28    29    1
    26    28    30   ar
    27     4     5    1
    28     5     6    1
    29    11    12    1
    30    12    13    1
    31    18    19   ar
    32    19    14   ar
    33    13     8    1
    34     6     1    1
    35    30    24   ar
    36    32    33    1
@<TRIPOS>MOLECULE
*****
 33 36 0 0 0
SMALL
GASTEIGER

@<TRIPOS>ATOM
      1 N         138.6009  138.8644  162.9268 N.3     1  UNL1       -0.2724
      2 C         138.9633  137.6543  163.7357 C.3     1  UNL1        0.0758
      3 C         138.9012  137.7072  165.2336 C.3     1  UNL1        0.0609
      4 C         138.4767  138.9703  165.9224 C.3     1  UNL1        0.1687
      5 C         138.1143  140.1804  165.1135 C.3     1  UNL1        0.0609
      6 C         138.1764  140.1275  163.6158 C.3     1  UNL1        0.0758
      7 C         138.6629  138.8115  161.4291 C.3     1  UNL1        0.0722
      8 N         140.1085  142.3864  159.1095 N.pl3   1  UNL1       -0.2932
      9 C         138.6579  142.0064  159.0747 C.3     1  UNL1        0.0922
     10 C         138.1760  140.8147  159.8479 C.3     1  UNL1        0.0229
     11 C         139.1448  140.0031  160.6559 C.3     1  UNL1        0.0194
     12 C         140.5954  140.3833  160.6907 C.3     1  UNL1        0.0229
     13 C         141.0772  141.5749  159.9175 C.3     1  UNL1        0.0922
     14 CA        140.0839  145.6866  156.9053 C.ar    1  UNL1        0.0966
     15 C         141.5540  145.9613  156.7900 C.ar    1  UNL1        0.0204
     16 C         142.5422  145.0445  157.4478 C.ar    1  UNL1        0.0044
     17 C         142.0604  143.8529  158.2209 C.ar    1  UNL1        0.0343
     18 C         140.5903  143.5781  158.3363 C.ar    1  UNL1        0.1317
     19 N         139.6021  144.4950  157.6785 N.ar    1  UNL1       -0.2295
     20 O         138.8396  147.9657  156.8207 O.co2   1  UNL1       -0.5430
     21 C         139.0956  146.6035  156.2475 C.2     1  UNL1        0.0905
     22 OXT       138.3634  146.1580  155.0165 O.co2   1  UNL1       -0.5430
     23 O         138.4146  139.0232  167.4202 O.3     1  UNL1       -0.4790
     24 C         139.3609  139.9053  168.1794 C.ar    1  UNL1        0.1392
     25 C         139.0248  140.3401  169.5750 C.ar    1  UNL1        0.0367
     26 C         139.9711  141.2222  170.3342 C.ar    1  UNL1        0.0021
     27 C         141.2535  141.6695  169.6977 C.ar    1  UNL1        0.0177
     28 C         141.5897  141.2348  168.3020 C.ar    1  UNL1        0.0590
     29 CL        142.8722  141.6821  167.6655 Cl      1  UNL1       -0.0824
     30 C         140.6434  140.3526  167.5428 C.ar    1  UNL1        0.0480
     31 C         142.1998  142.5517  170.4569 C.3     1  UNL1        0.1644
     32 O         142.2457  142.4886  171.9549 O.3     1  UNL1       -0.3772
     33 H         141.4032  142.8041  172.3177 H       1  UNL1        0.2109
@<TRIPOS>UNITY_ATOM_ATTR
20 1
charge -1
@<TRIPOS>BOND
     1    20    21   ar
     2    21    22   ar
     3    21    14    1
     4    14    15   ar
     5    15    16   ar
     6    16    17   ar
     7    17    18   ar
     8    18     8    1
     9     8     9    1
    10     9    10    1
    11    10    11    1
    12    11     7    1
    13     7     1    1
    14     1     2    1
    15     2     3    1
    16     3     4    1
    17     4    23    1
    18    23    24    1
    19    24    25   ar
    20    25    26   ar
    21    26    27   ar
    22    27    31    1
    23    31    32    1
    24    27    28   ar
    25    28    29    1
    26    28    30   ar
    27     4     5    1
    28     5     6    1
    29    11    12    1
    30    12    13    1
    31    18    19   ar
    32    19    14   ar
    33    13     8    1
    34     6     1    1
    35    30    24   ar
    36    32    33    1
@<TRIPOS>MOLECULE
*****
 33 36 0 0 0
SMALL
GASTEIGER

@<TRIPOS>ATOM
      1 N         140.3839  138.6707  159.7775 N.3     1  UNL1       -0.2724
      2 C         141.7774  138.3542  160.2338 C.3     1  UNL1        0.0758
      3 C         142.8012  137.8814  159.2447 C.3     1  UNL1        0.0609
      4 C         142.4316  137.7252  157.7994 C.3     1  UNL1        0.1687
      5 C         141.0382  138.0417  157.3431 C.3     1  UNL1        0.0609
      6 C         140.0143  138.5144  158.3322 C.3     1  UNL1        0.0758
      7 C         139.3601  139.1434  160.7666 C.3     1  UNL1        0.0722
      8 N         140.4471  139.5379  165.1155 N.pl3   1  UNL1       -0.2932
      9 C         140.8495  140.6058  164.1420 C.3     1  UNL1        0.0922
     10 C         140.4871  140.4743  162.6923 C.3     1  UNL1        0.0229
     11 C         139.7225  139.2749  162.2162 C.3     1  UNL1        0.0194
     12 C         139.3201  138.2070  163.1897 C.3     1  UNL1        0.0229
     13 C         139.6825  138.3385  164.6393 C.3     1  UNL1        0.0922
     14 CA        140.1352  140.2283  169.0111 C.ar    1  UNL1        0.0966
     15 C         141.5341  139.9323  169.4644 C.ar    1  UNL1        0.0204
     16 C         142.5707  139.5049  168.4680 C.ar    1  UNL1        0.0044
     17 C         142.2084  139.3734  167.0184 C.ar    1  UNL1        0.0343
     18 C         140.8095  139.6694  166.5651 C.ar    1  UNL1        0.1317
     19 N         139.7729  140.0968  167.5615 N.ar    1  UNL1       -0.2295
     20 O         137.9561  139.7424  170.3399 O.co2   1  UNL1       -0.5430
     21 C         139.0986  140.6558  170.0075 C.2     1  UNL1        0.0905
     22 OXT       139.2044  141.9966  170.6714 O.co2   1  UNL1       -0.5430
     23 O         143.4554  137.2525  156.8103 O.3     1  UNL1       -0.4790
     24 C         143.2542  135.9552  156.0846 C.ar    1  UNL1        0.1392
     25 C         143.6206  134.6604  156.7473 C.ar    1  UNL1        0.0367
     26 C         143.4193  133.3632  156.0215 C.ar    1  UNL1        0.0021
     27 C         142.8518  133.3608  154.6331 C.ar    1  UNL1        0.0177
     28 C         142.4854  134.6556  153.9703 C.ar    1  UNL1        0.0590
     29 CL        141.9178  134.6532  152.5819 Cl      1  UNL1       -0.0824
     30 C         142.6866  135.9529  154.6960 C.ar    1  UNL1        0.0480
     31 C         142.6506  132.0635  153.9074 C.3     1  UNL1        0.1644
     32 O         143.7602  131.0559  153.8508 O.3     1  UNL1       -0.3772
     33 H         144.4989  131.4169  153.3361 H       1  UNL1        0.2109
@<TRIPOS>UNITY_ATOM_ATTR
20 1
charge -1
@<TRIPOS>BOND
     1    20    21   ar
     2    21    22   ar
     3    21    14    1
     4    14    15   ar
     5    15    16   ar
     6    16    17   ar
     7    17    18   ar
     8    18     8    1
     9     8     9    1
    10     9    10    1
    11    10    11    1
    12    11     7    1
    13     7     1    1
    14     1     2    1
    15     2     3    1
    16     3     4    1
    17     4    23    1
    18    23    24    1
    19    24    25   ar
    20    25    26   ar
    21    26    27   ar
    22    27    31    1
    23    31    32    1
    24    27    28   ar
    25    28    29    1
    26    28    30   ar
    27     4     5    1
    28     5     6    1
    29    11    12    1
    30    12    13    1
    31    18    19   ar
    32    19    14   ar
    33    13     8    1
    34     6     1    1
    35    30    24   ar
    36    32    33    1
@<TRIPOS>MOLECULE
*****
 33 36 0 0 0
SMALL
GASTEIGER

@<TRIPOS>ATOM
      1 N         138.2633  139.3623  162.9012 N.3     1  UNL1       -0.2724
      2 C         137.9020  140.5327  163.7670 C.3     1  UNL1        0.0758
      3 C         137.9926  140.4176  165.2598 C.3     1  UNL1        0.0609
      4 C         138.4445  139.1320  165.8869 C.3     1  UNL1        0.1687
      5 C         138.8057  137.9616  165.0211 C.3     1  UNL1        0.0609
      6 C         138.7152  138.0767  163.5283 C.3     1  UNL1        0.0758
      7 C         138.1727  139.4773  161.4084 C.3     1  UNL1        0.0722
      8 N         141.8561  140.4059  158.9958 N.pl3   1  UNL1       -0.2932
      9 C         141.3198  141.4172  159.9651 C.3     1  UNL1        0.0922
     10 C         140.0919  141.1077  160.7693 C.3     1  UNL1        0.0229
     11 C         139.4005  139.7869  160.6042 C.3     1  UNL1        0.0194
     12 C         139.9369  138.7755  159.6349 C.3     1  UNL1        0.0229
     13 C         141.1647  139.0850  158.8307 C.3     1  UNL1        0.0922
     14 CA        144.7167  140.1225  156.2597 C.ar    1  UNL1        0.0966
     15 C         145.5394  141.3343  156.5831 C.ar    1  UNL1        0.0204
     16 C         145.1344  142.2366  157.7108 C.ar    1  UNL1        0.0044
     17 C         143.9066  141.9272  158.5150 C.ar    1  UNL1        0.0343
     18 C         143.0839  140.7154  158.1916 C.ar    1  UNL1        0.1317
     19 N         143.4890  139.8131  157.0639 N.ar    1  UNL1       -0.2295
     20 O         145.5265  139.8053  153.8115 O.co2   1  UNL1       -0.5430
     21 C         145.1218  139.2201  155.1320 C.2     1  UNL1        0.0905
     22 OXT       145.1221  137.7326  155.3248 O.co2   1  UNL1       -0.5430
     23 O         138.5350  139.0170  167.3797 O.3     1  UNL1       -0.4790
     24 C         139.4580  139.9169  168.1467 C.ar    1  UNL1        0.1392
     25 C         139.0991  140.3498  169.5372 C.ar    1  UNL1        0.0367
     26 C         140.0221  141.2498  170.3042 C.ar    1  UNL1        0.0021
     27 C         141.3039  141.7167  169.6807 C.ar    1  UNL1        0.0177
     28 C         141.6628  141.2838  168.2900 C.ar    1  UNL1        0.0590
     29 CL        142.9446  141.7507  167.6665 Cl      1  UNL1       -0.0824
     30 C         140.7398  140.3838  167.5230 C.ar    1  UNL1        0.0480
     31 C         142.2268  142.6167  170.4477 C.3     1  UNL1        0.1644
     32 O         142.2678  142.5481  171.9455 O.3     1  UNL1       -0.3772
     33 H         141.4169  142.8430  172.3061 H       1  UNL1        0.2109
@<TRIPOS>UNITY_ATOM_ATTR
20 1
charge -1
@<TRIPOS>BOND
     1    20    21   ar
     2    21    22   ar
     3    21    14    1
     4    14    15   ar
     5    15    16   ar
     6    16    17   ar
     7    17    18   ar
     8    18     8    1
     9     8     9    1
    10     9    10    1
    11    10    11    1
    12    11     7    1
    13     7     1    1
    14     1     2    1
    15     2     3    1
    16     3     4    1
    17     4    23    1
    18    23    24    1
    19    24    25   ar
    20    25    26   ar
    21    26    27   ar
    22    27    31    1
    23    31    32    1
    24    27    28   ar
    25    28    29    1
    26    28    30   ar
    27     4     5    1
    28     5     6    1
    29    11    12    1
    30    12    13    1
    31    18    19   ar
    32    19    14   ar
    33    13     8    1
    34     6     1    1
    35    30    24   ar
    36    32    33    1
@<TRIPOS>MOLECULE
*****
 33 36 0 0 0
SMALL
GASTEIGER

@<TRIPOS>ATOM
      1 N         142.4275  144.3127  161.0989 N.3     1  UNL1       -0.2724
      2 C         141.2841  145.0322  160.4471 C.3     1  UNL1        0.0758
      3 C         140.8518  144.6536  159.0614 C.3     1  UNL1        0.0609
      4 C         141.5631  143.5556  158.3276 C.3     1  UNL1        0.1687
      5 C         142.7065  142.8361  158.9794 C.3     1  UNL1        0.0609
      6 C         143.1387  143.2146  160.3650 C.3     1  UNL1        0.0758
      7 C         142.8598  144.6912  162.4844 C.3     1  UNL1        0.0722
      8 N         141.0654  142.6104  166.0482 N.pl3   1  UNL1       -0.2932
      9 C         142.4933  142.3513  165.6689 C.3     1  UNL1        0.0922
     10 C         143.0915  143.0449  164.4810 C.3     1  UNL1        0.0229
     11 C         142.2617  143.9976  163.6723 C.3     1  UNL1        0.0194
     12 C         140.8337  144.2566  164.0517 C.3     1  UNL1        0.0229
     13 C         140.2356  143.5630  165.2396 C.3     1  UNL1        0.0922
     14 CA        139.8772  141.8931  169.7662 C.ar    1  UNL1        0.0966
     15 C         139.2710  140.5297  169.6120 C.ar    1  UNL1        0.0204
     16 C         139.2630  139.8599  168.2699 C.ar    1  UNL1        0.0044
     17 C         139.8611  140.5534  167.0820 C.ar    1  UNL1        0.0343
     18 C         140.4673  141.9168  167.2362 C.ar    1  UNL1        0.1317
     19 N         140.4753  142.5866  168.5783 N.ar    1  UNL1       -0.2295
     20 O         140.8850  142.1490  172.1471 O.co2   1  UNL1       -0.5430
     21 C         139.8852  142.5629  171.1083 C.2     1  UNL1        0.0905
     22 OXT       138.8934  143.6466  171.4117 O.co2   1  UNL1       -0.5430
     23 O         141.1308  143.1771  156.9421 O.3     1  UNL1       -0.4790
     24 C         139.7462  142.6509  156.7058 C.ar    1  UNL1        0.1392
     25 C         139.2897  141.4023  157.4005 C.ar    1  UNL1        0.0367
     26 C         137.9050  140.8761  157.1642 C.ar    1  UNL1        0.0021
     27 C         136.9768  141.5985  156.2334 C.ar    1  UNL1        0.0177
     28 C         137.4333  142.8471  155.5386 C.ar    1  UNL1        0.0590
     29 CL        136.5051  143.5695  154.6078 Cl      1  UNL1       -0.0824
     30 C         138.8179  143.3734  155.7749 C.ar    1  UNL1        0.0480
     31 C         135.5922  141.0722  155.9971 C.3     1  UNL1        0.1644
     32 O         134.9927  140.0831  156.9521 O.3     1  UNL1       -0.3772
     33 H         135.4912  139.2519  156.9120 H       1  UNL1        0.2109
@<TRIPOS>UNITY_ATOM_ATTR
20 1
charge -1
@<TRIPOS>BOND
     1    20    21   ar
     2    21    22   ar
     3    21    14    1
     4    14    15   ar
     5    15    16   ar
     6    16    17   ar
     7    17    18   ar
     8    18     8    1
     9     8     9    1
    10     9    10    1
    11    10    11    1
    12    11     7    1
    13     7     1    1
    14     1     2    1
    15     2     3    1
    16     3     4    1
    17     4    23    1
    18    23    24    1
    19    24    25   ar
    20    25    26   ar
    21    26    27   ar
    22    27    31    1
    23    31    32    1
    24    27    28   ar
    25    28    29    1
    26    28    30   ar
    27     4     5    1
    28     5     6    1
    29    11    12    1
    30    12    13    1
    31    18    19   ar
    32    19    14   ar
    33    13     8    1
    34     6     1    1
    35    30    24   ar
    36    32    33    1
@<TRIPOS>MOLECULE
*****
 33 36 0 0 0
SMALL
GASTEIGER

@<TRIPOS>ATOM
      1 N         140.2096  138.3914  158.1198 N.3     1  UNL1       -0.2724
      2 C         139.7142  137.6593  156.9080 C.3     1  UNL1        0.0758
      3 C         140.6398  136.7579  156.1458 C.3     1  UNL1        0.0609
      4 C         142.0607  136.5888  156.5954 C.3     1  UNL1        0.1687
      5 C         142.5562  137.3209  157.8072 C.3     1  UNL1        0.0609
      6 C         141.6307  138.2222  158.5694 C.3     1  UNL1        0.0758
      7 C         139.2841  139.2927  158.8821 C.3     1  UNL1        0.0722
      8 N         139.5216  139.4843  163.3717 N.pl3   1  UNL1       -0.2932
      9 C         138.8369  138.3279  162.7056 C.3     1  UNL1        0.0922
     10 C         138.7577  138.2640  161.2090 C.3     1  UNL1        0.0229
     11 C         139.3633  139.3566  160.3786 C.3     1  UNL1        0.0194
     12 C         140.0480  140.5130  161.0448 C.3     1  UNL1        0.0229
     13 C         140.1272  140.5769  162.5413 C.3     1  UNL1        0.0922
     14 CA        140.9836  139.9336  167.0338 C.ar    1  UNL1        0.0966
     15 C         139.7594  139.6760  167.8613 C.ar    1  UNL1        0.0204
     16 C         138.4559  139.3545  167.1923 C.ar    1  UNL1        0.0044
     17 C         138.3766  139.2906  165.6958 C.ar    1  UNL1        0.0343
     18 C         139.6009  139.5482  164.8683 C.ar    1  UNL1        0.1317
     19 N         140.9044  139.8697  165.5373 N.ar    1  UNL1       -0.2295
     20 O         142.8475  141.6442  167.6248 O.co2   1  UNL1       -0.5430
     21 C         142.2871  140.2551  167.7028 C.2     1  UNL1        0.0905
     22 OXT       143.0301  139.1874  168.4497 O.co2   1  UNL1       -0.5430
     23 O         142.9863  135.6875  155.8332 O.3     1  UNL1       -0.4790
     24 C         143.0947  134.2378  156.2031 C.ar    1  UNL1        0.1392
     25 C         144.1030  133.7973  157.2225 C.ar    1  UNL1        0.0367
     26 C         144.2114  132.3476  157.5923 C.ar    1  UNL1        0.0021
     27 C         143.3115  131.3385  156.9428 C.ar    1  UNL1        0.0177
     28 C         142.3032  131.7791  155.9233 C.ar    1  UNL1        0.0590
     29 CL        141.4033  130.7700  155.2738 Cl      1  UNL1       -0.0824
     30 C         142.1947  133.2287  155.5535 C.ar    1  UNL1        0.0480
     31 C         143.4199  129.8889  157.3127 C.3     1  UNL1        0.1644
     32 O         143.3738  129.4772  158.7543 O.3     1  UNL1       -0.3772
     33 H         144.1558  129.8209  159.2139 H       1  UNL1        0.2109
@<TRIPOS>UNITY_ATOM_ATTR
20 1
charge -1
@<TRIPOS>BOND
     1    20    21   ar
     2    21    22   ar
     3    21    14    1
     4    14    15   ar
     5    15    16   ar
     6    16    17   ar
     7    17    18   ar
     8    18     8    1
     9     8     9    1
    10     9    10    1
    11    10    11    1
    12    11     7    1
    13     7     1    1
    14     1     2    1
    15     2     3    1
    16     3     4    1
    17     4    23    1
    18    23    24    1
    19    24    25   ar
    20    25    26   ar
    21    26    27   ar
    22    27    31    1
    23    31    32    1
    24    27    28   ar
    25    28    29    1
    26    28    30   ar
    27     4     5    1
    28     5     6    1
    29    11    12    1
    30    12    13    1
    31    18    19   ar
    32    19    14   ar
    33    13     8    1
    34     6     1    1
    35    30    24   ar
    36    32    33    1
@<TRIPOS>MOLECULE
*****
 33 36 0 0 0
SMALL
GASTEIGER

@<TRIPOS>ATOM
      1 N         142.0067  138.7358  161.3031 N.3     1  UNL1       -0.2724
      2 C         143.1568  138.5165  160.3654 C.3     1  UNL1        0.0758
      3 C         143.3636  139.4417  159.2029 C.3     1  UNL1        0.0609
      4 C         142.4204  140.5862  158.9782 C.3     1  UNL1        0.1687
      5 C         141.2703  140.8055  159.9159 C.3     1  UNL1        0.0609
      6 C         141.0635  139.8803  161.0783 C.3     1  UNL1        0.0758
      7 C         141.7999  137.8107  162.4655 C.3     1  UNL1        0.0722
      8 N         141.8120  139.4337  166.6626 N.pl3   1  UNL1       -0.2932
      9 C         143.1087  139.1886  165.9495 C.3     1  UNL1        0.0922
     10 C         143.1047  138.6475  164.5504 C.3     1  UNL1        0.0229
     11 C         141.8040  138.3517  163.8645 C.3     1  UNL1        0.0194
     12 C         140.5072  138.5968  164.5776 C.3     1  UNL1        0.0229
     13 C         140.5113  139.1378  165.9766 C.3     1  UNL1        0.0922
     14 CA        140.9874  141.7155  169.8032 C.ar    1  UNL1        0.0966
     15 C         141.8240  141.0568  170.8596 C.ar    1  UNL1        0.0204
     16 C         142.6566  139.8570  170.5171 C.ar    1  UNL1        0.0044
     17 C         142.6526  139.3160  169.1181 C.ar    1  UNL1        0.0343
     18 C         141.8160  139.9747  168.0617 C.ar    1  UNL1        0.1317
     19 N         140.9834  141.1745  168.4042 N.ar    1  UNL1       -0.2295
     20 O         139.4210  142.9705  171.4528 O.co2   1  UNL1       -0.5430
     21 C         140.1547  142.9152  170.1457 C.2     1  UNL1        0.0905
     22 OXT       140.0559  144.0597  169.1812 O.co2   1  UNL1       -0.5430
     23 O         142.6272  141.5113  157.8157 O.3     1  UNL1       -0.4790
     24 C         143.9818  141.6286  157.1823 C.ar    1  UNL1        0.1392
     25 C         144.2463  140.9863  155.8529 C.ar    1  UNL1        0.0367
     26 C         145.6010  141.1037  155.2195 C.ar    1  UNL1        0.0021
     27 C         146.6911  141.8633  155.9155 C.ar    1  UNL1        0.0177
     28 C         146.4266  142.5057  157.2450 C.ar    1  UNL1        0.0590
     29 CL        147.5167  143.2653  157.9410 Cl      1  UNL1       -0.0824
     30 C         145.0720  142.3884  157.8784 C.ar    1  UNL1        0.0480
     31 C         148.0457  141.9806  155.2821 C.3     1  UNL1        0.1644
     32 O         149.2263  141.2956  155.9041 O.3     1  UNL1       -0.3772
     33 H         149.4153  141.6966  156.7668 H       1  UNL1        0.2109
@<TRIPOS>UNITY_ATOM_ATTR
20 1
charge -1
@<TRIPOS>BOND
     1    20    21   ar
     2    21    22   ar
     3    21    14    1
     4    14    15   ar
     5    15    16   ar
     6    16    17   ar
     7    17    18   ar
     8    18     8    1
     9     8     9    1
    10     9    10    1
    11    10    11    1
    12    11     7    1
    13     7     1    1
    14     1     2    1
    15     2     3    1
    16     3     4    1
    17     4    23    1
    18    23    24    1
    19    24    25   ar
    20    25    26   ar
    21    26    27   ar
    22    27    31    1
    23    31    32    1
    24    27    28   ar
    25    28    29    1
    26    28    30   ar
    27     4     5    1
    28     5     6    1
    29    11    12    1
    30    12    13    1
    31    18    19   ar
    32    19    14   ar
    33    13     8    1
    34     6     1    1
    35    30    24   ar
    36    32    33    1
@<TRIPOS>MOLECULE
*****
 33 36 0 0 0
SMALL
GASTEIGER

@<TRIPOS>ATOM
      1 N         139.0908  139.0604  161.3893 N.3     1  UNL1       -0.2724
      2 C         140.3905  138.3623  161.6603 C.3     1  UNL1        0.0758
      3 C         141.3793  138.1605  160.5504 C.3     1  UNL1        0.0609
      4 C         141.0683  138.6569  159.1695 C.3     1  UNL1        0.1687
      5 C         139.7686  139.3550  158.8985 C.3     1  UNL1        0.0609
      6 C         138.7799  139.5567  160.0083 C.3     1  UNL1        0.0758
      7 C         138.1022  139.2621  162.4991 C.3     1  UNL1        0.0722
      8 N         139.5394  140.3466  166.6232 N.pl3   1  UNL1       -0.2932
      9 C         139.5828  141.3643  165.5221 C.3     1  UNL1        0.0922
     10 C         139.1037  141.0028  164.1474 C.3     1  UNL1        0.0229
     11 C         138.5812  139.6236  163.8737 C.3     1  UNL1        0.0194
     12 C         138.5378  138.6059  164.9749 C.3     1  UNL1        0.0229
     13 C         139.0169  138.9674  166.3496 C.3     1  UNL1        0.0922
     14 CA        141.7126  141.9331  169.5405 C.ar    1  UNL1        0.0966
     15 C         140.9767  141.4310  170.7473 C.ar    1  UNL1        0.0204
     16 C         139.7617  140.5675  170.5794 C.ar    1  UNL1        0.0044
     17 C         139.2826  140.2060  169.2047 C.ar    1  UNL1        0.0343
     18 C         140.0185  140.7080  167.9979 C.ar    1  UNL1        0.1317
     19 N         141.2335  141.5716  168.1658 N.ar    1  UNL1       -0.2295
     20 O         143.0826  143.6423  170.9374 O.co2   1  UNL1       -0.5430
     21 C         142.9275  142.7966  169.7083 C.2     1  UNL1        0.0905
     22 OXT       143.9874  142.8144  168.6471 O.co2   1  UNL1       -0.5430
     23 O         142.0569  138.4551  158.0597 O.3     1  UNL1       -0.4790
     24 C         141.9355  137.2655  157.1541 C.ar    1  UNL1        0.1392
     25 C         140.7993  137.1783  156.1788 C.ar    1  UNL1        0.0367
     26 C         140.6778  135.9887  155.2732 C.ar    1  UNL1        0.0021
     27 C         141.6926  134.8863  155.3429 C.ar    1  UNL1        0.0177
     28 C         142.8290  134.9735  156.3183 C.ar    1  UNL1        0.0590
     29 CL        143.8438  133.8712  156.3880 Cl      1  UNL1       -0.0824
     30 C         142.9504  136.1631  157.2239 C.ar    1  UNL1        0.0480
     31 C         141.5712  133.6967  154.4373 C.3     1  UNL1        0.1644
     32 O         142.1707  133.7361  153.0629 O.3     1  UNL1       -0.3772
     33 H         141.7057  134.3969  152.5262 H       1  UNL1        0.2109
@<TRIPOS>UNITY_ATOM_ATTR
20 1
charge -1
@<TRIPOS>BOND
     1    20    21   ar
     2    21    22   ar
     3    21    14    1
     4    14    15   ar
     5    15    16   ar
     6    16    17   ar
     7    17    18   ar
     8    18     8    1
     9     8     9    1
    10     9    10    1
    11    10    11    1
    12    11     7    1
    13     7     1    1
    14     1     2    1
    15     2     3    1
    16     3     4    1
    17     4    23    1
    18    23    24    1
    19    24    25   ar
    20    25    26   ar
    21    26    27   ar
    22    27    31    1
    23    31    32    1
    24    27    28   ar
    25    28    29    1
    26    28    30   ar
    27     4     5    1
    28     5     6    1
    29    11    12    1
    30    12    13    1
    31    18    19   ar
    32    19    14   ar
    33    13     8    1
    34     6     1    1
    35    30    24   ar
    36    32    33    1
