@<TRIPOS>MOLECULE
*****
 35 38 0 0 0
SMALL
GASTEIGER

@<TRIPOS>ATOM
      1 C         142.0551  143.9422  162.0289 C.3     1  UNL1        0.1751
      2 C         142.0890  144.0450  160.5328 C.ar    1  UNL1        0.0089
      3 C         142.9302  143.3579  159.4983 C.ar    1  UNL1       -0.0021
      4 C         142.7342  143.6699  158.0443 C.ar    1  UNL1       -0.0003
      5 C         141.6970  144.6690  157.6248 C.ar    1  UNL1        0.0001
      6 C         140.8557  145.3560  158.6592 C.ar    1  UNL1        0.0043
      7 C         141.0517  145.0440  160.1132 C.ar    1  UNL1        0.0516
      8 C         140.3769  145.5587  161.3501 C.2     1  UNL1        0.2493
      9 O         139.2752  146.5757  161.3950 O.2     1  UNL1       -0.2699
     10 N         140.9970  144.8777  162.5340 N.am    1  UNL1       -0.2657
     11 O         144.3863  143.3691  163.0225 O.2     1  UNL1       -0.2729
     12 C         142.9265  143.0590  162.8718 C.2     1  UNL1        0.2451
     13 N         142.3380  141.8654  163.5642 N.am    1  UNL1       -0.2988
     14 H         141.3799  141.6618  163.4653 H       1  UNL1        0.1498
     15 C         143.2094  140.9821  164.4071 C.3     1  UNL1        0.1164
     16 C         143.0319  140.9547  165.8963 C.ar    1  UNL1       -0.0024
     17 C         142.7943  139.6512  166.5994 C.ar    1  UNL1        0.0005
     18 C         142.6168  139.6238  168.0886 C.ar    1  UNL1        0.0366
     19 C         142.6768  140.9000  168.8748 C.ar    1  UNL1        0.1390
     20 C         142.9144  142.2035  168.1716 C.ar    1  UNL1        0.0366
     21 C         143.0919  142.2308  166.6823 C.ar    1  UNL1        0.0005
     22 O         142.4993  140.8725  170.3639 O.3     1  UNL1       -0.4666
     23 C         141.2219  141.3658  170.9763 C.3     1  UNL1        0.3081
     24 C         139.9025  140.9471  170.3984 C.3     1  UNL1        0.4380
     25 F         138.5832  140.5285  169.8205 F       1  UNL1       -0.1663
     26 F         140.1144  139.5574  170.9215 F       1  UNL1       -0.1663
     27 F         139.6906  142.3369  169.8753 F       1  UNL1       -0.1663
     28 C         140.6245  145.0943  163.9708 C.3     1  UNL1        0.1007
     29 C         139.2895  144.6342  164.4770 C.3     1  UNL1        0.0673
     30 C         138.8730  143.2040  164.3011 C.ar    1  UNL1        0.0607
     31 C         137.7623  142.8573  163.3545 C.ar    1  UNL1        0.0148
     32 C         137.3457  141.4270  163.1786 C.ar    1  UNL1        0.0028
     33 C         138.0400  140.3435  163.9494 C.ar    1  UNL1        0.0207
     34 C         139.1507  140.6902  164.8960 C.ar    1  UNL1        0.0984
     35 N         139.5672  142.1205  165.0719 N.ar    1  UNL1       -0.2481
@<TRIPOS>BOND
     1    11    12    2
     2    12    13   am
     3    13    15    1
     4    15    16    1
     5    16    17   ar
     6    17    18   ar
     7    18    19   ar
     8    19    22    1
     9    22    23    1
    10    23    24    1
    11    24    25    1
    12    24    26    1
    13    24    27    1
    14    19    20   ar
    15    20    21   ar
    16    12     1    1
    17     1     2    1
    18     2     3   ar
    19     3     4   ar
    20     4     5   ar
    21     5     6   ar
    22     6     7   ar
    23     7     8    1
    24     8     9    2
    25     8    10   am
    26    10    28    1
    27    28    29    1
    28    29    30    1
    29    30    31   ar
    30    31    32   ar
    31    32    33   ar
    32    33    34   ar
    33    34    35   ar
    34    21    16   ar
    35    10     1    1
    36    35    30   ar
    37     7     2   ar
    38    13    14    1
@<TRIPOS>MOLECULE
*****
 35 38 0 0 0
SMALL
GASTEIGER

@<TRIPOS>ATOM
      1 C         140.3916  138.6529  161.2587 C.3     1  UNL1        0.1751
      2 C         141.0212  138.5457  159.9015 C.ar    1  UNL1        0.0089
      3 C         142.3658  138.0531  159.4549 C.ar    1  UNL1       -0.0021
      4 C         142.7233  138.0660  157.9982 C.ar    1  UNL1       -0.0003
      5 C         141.7363  138.5716  156.9881 C.ar    1  UNL1        0.0001
      6 C         140.3918  139.0642  157.4347 C.ar    1  UNL1        0.0043
      7 C         140.0342  139.0513  158.8914 C.ar    1  UNL1        0.0516
      8 C         138.7946  139.4709  159.6244 C.2     1  UNL1        0.2493
      9 O         137.5522  140.0372  159.0033 O.2     1  UNL1       -0.2699
     10 N         139.0154  139.2247  161.0875 N.am    1  UNL1       -0.2657
     11 O         140.9576  136.8337  163.0251 O.2     1  UNL1       -0.2729
     12 C         141.0266  138.2577  162.5589 C.2     1  UNL1        0.2451
     13 N         141.7307  139.2866  163.3930 N.am    1  UNL1       -0.2988
     14 H         141.7760  140.2212  163.0871 H       1  UNL1        0.1498
     15 C         142.3657  138.8914  164.6933 C.3     1  UNL1        0.1164
     16 C         141.7369  139.3042  165.9910 C.ar    1  UNL1       -0.0024
     17 C         142.5685  139.3788  167.2371 C.ar    1  UNL1        0.0005
     18 C         141.9396  139.7916  168.5348 C.ar    1  UNL1        0.0366
     19 C         140.4791  140.1298  168.5865 C.ar    1  UNL1        0.1390
     20 C         139.6476  140.0552  167.3403 C.ar    1  UNL1        0.0366
     21 C         140.2765  139.6424  166.0425 C.ar    1  UNL1        0.0005
     22 O         139.8503  140.5426  169.8842 O.3     1  UNL1       -0.4666
     23 C         139.6698  141.9976  170.2008 C.3     1  UNL1        0.3081
     24 C         140.8497  142.9234  170.1723 C.3     1  UNL1        0.4380
     25 F         142.0296  143.8492  170.1438 F       1  UNL1       -0.1663
     26 F         140.2037  143.7128  169.0726 F       1  UNL1       -0.1663
     27 F         141.4957  142.1340  171.2721 F       1  UNL1       -0.1663
     28 C         138.0327  139.5016  162.1863 C.3     1  UNL1        0.1007
     29 C         137.6285  140.9132  162.4929 C.3     1  UNL1        0.0673
     30 C         138.5162  141.7817  163.3340 C.ar    1  UNL1        0.0607
     31 C         137.9209  142.6534  164.3998 C.ar    1  UNL1        0.0148
     32 C         138.8086  143.5220  165.2409 C.ar    1  UNL1        0.0028
     33 C         140.2918  143.5188  165.0164 C.ar    1  UNL1        0.0207
     34 C         140.8871  142.6471  163.9507 C.ar    1  UNL1        0.0984
     35 N         139.9993  141.7786  163.1095 N.ar    1  UNL1       -0.2481
@<TRIPOS>BOND
     1    11    12    2
     2    12    13   am
     3    13    15    1
     4    15    16    1
     5    16    17   ar
     6    17    18   ar
     7    18    19   ar
     8    19    22    1
     9    22    23    1
    10    23    24    1
    11    24    25    1
    12    24    26    1
    13    24    27    1
    14    19    20   ar
    15    20    21   ar
    16    12     1    1
    17     1     2    1
    18     2     3   ar
    19     3     4   ar
    20     4     5   ar
    21     5     6   ar
    22     6     7   ar
    23     7     8    1
    24     8     9    2
    25     8    10   am
    26    10    28    1
    27    28    29    1
    28    29    30    1
    29    30    31   ar
    30    31    32   ar
    31    32    33   ar
    32    33    34   ar
    33    34    35   ar
    34    21    16   ar
    35    10     1    1
    36    35    30   ar
    37     7     2   ar
    38    13    14    1
@<TRIPOS>MOLECULE
*****
 35 38 0 0 0
SMALL
GASTEIGER

@<TRIPOS>ATOM
      1 C         139.5888  141.8538  161.9262 C.3     1  UNL1        0.1751
      2 C         140.2255  141.5812  160.5957 C.ar    1  UNL1        0.0089
      3 C         140.7274  140.3171  159.9633 C.ar    1  UNL1       -0.0021
      4 C         141.3290  140.3532  158.5897 C.ar    1  UNL1       -0.0003
      5 C         141.4285  141.6534  157.8485 C.ar    1  UNL1        0.0001
      6 C         140.9265  142.9176  158.4808 C.ar    1  UNL1        0.0043
      7 C         140.3250  142.8815  159.8544 C.ar    1  UNL1        0.0516
      8 C         139.7498  143.9576  160.7269 C.2     1  UNL1        0.2493
      9 O         139.6476  145.4133  160.3798 O.2     1  UNL1       -0.2699
     10 N         139.2948  143.3225  162.0073 N.am    1  UNL1       -0.2657
     11 O         137.8793  140.5552  163.3896 O.2     1  UNL1       -0.2729
     12 C         139.2972  140.8363  162.9891 C.2     1  UNL1        0.2451
     13 N         140.4237  140.0997  163.6515 N.am    1  UNL1       -0.2988
     14 H         141.3544  140.2842  163.3886 H       1  UNL1        0.1498
     15 C         140.1322  139.0822  164.7143 C.3     1  UNL1        0.1164
     16 C         140.3309  139.4297  166.1599 C.ar    1  UNL1       -0.0024
     17 C         139.1427  139.6368  167.0517 C.ar    1  UNL1        0.0005
     18 C         139.3415  139.9844  168.4973 C.ar    1  UNL1        0.0366
     19 C         140.7285  140.1248  169.0511 C.ar    1  UNL1        0.1390
     20 C         141.9166  139.9178  168.1593 C.ar    1  UNL1        0.0366
     21 C         141.7178  139.5702  166.7136 C.ar    1  UNL1        0.0005
     22 O         140.9272  140.4724  170.4967 O.3     1  UNL1       -0.4666
     23 C         141.2151  141.8897  170.8947 C.3     1  UNL1        0.3081
     24 C         140.6912  143.0232  170.0636 C.3     1  UNL1        0.4380
     25 F         140.1673  144.1567  169.2326 F       1  UNL1       -0.1663
     26 F         139.3032  142.7455  170.5599 F       1  UNL1       -0.1663
     27 F         142.0792  143.3009  169.5674 F       1  UNL1       -0.1663
     28 C         138.6576  144.0315  163.1655 C.3     1  UNL1        0.1007
     29 C         139.5056  144.8124  164.1252 C.3     1  UNL1        0.0673
     30 C         140.9491  144.4518  164.3154 C.ar    1  UNL1        0.0607
     31 C         141.3191  143.2213  165.0895 C.ar    1  UNL1        0.0148
     32 C         142.7627  142.8608  165.2797 C.ar    1  UNL1        0.0028
     33 C         143.8362  143.7307  164.6958 C.ar    1  UNL1        0.0207
     34 C         143.4662  144.9611  163.9219 C.ar    1  UNL1        0.0984
     35 N         142.0226  145.3217  163.7317 N.ar    1  UNL1       -0.2481
@<TRIPOS>BOND
     1    11    12    2
     2    12    13   am
     3    13    15    1
     4    15    16    1
     5    16    17   ar
     6    17    18   ar
     7    18    19   ar
     8    19    22    1
     9    22    23    1
    10    23    24    1
    11    24    25    1
    12    24    26    1
    13    24    27    1
    14    19    20   ar
    15    20    21   ar
    16    12     1    1
    17     1     2    1
    18     2     3   ar
    19     3     4   ar
    20     4     5   ar
    21     5     6   ar
    22     6     7   ar
    23     7     8    1
    24     8     9    2
    25     8    10   am
    26    10    28    1
    27    28    29    1
    28    29    30    1
    29    30    31   ar
    30    31    32   ar
    31    32    33   ar
    32    33    34   ar
    33    34    35   ar
    34    21    16   ar
    35    10     1    1
    36    35    30   ar
    37     7     2   ar
    38    13    14    1
@<TRIPOS>MOLECULE
*****
 35 38 0 0 0
SMALL
GASTEIGER

@<TRIPOS>ATOM
      1 C         143.9023  140.4828  161.2017 C.3     1  UNL1        0.1751
      2 C         144.0059  141.0665  159.8238 C.ar    1  UNL1        0.0089
      3 C         144.4383  142.4173  159.3358 C.ar    1  UNL1       -0.0021
      4 C         144.4380  142.7195  157.8666 C.ar    1  UNL1       -0.0003
      5 C         144.0053  141.6707  156.8853 C.ar    1  UNL1        0.0001
      6 C         143.5729  140.3199  157.3733 C.ar    1  UNL1        0.0043
      7 C         143.5732  140.0177  158.8425 C.ar    1  UNL1        0.0516
      8 C         143.2022  138.7860  159.6140 C.2     1  UNL1        0.2493
      9 O         142.7136  137.4937  159.0299 O.2     1  UNL1       -0.2699
     10 N         143.4056  139.0734  161.0720 N.am    1  UNL1       -0.2657
     11 O         145.6700  141.3745  162.8840 O.2     1  UNL1       -0.2729
     12 C         144.2368  141.1854  162.4841 C.2     1  UNL1        0.2451
     13 N         143.1378  141.6987  163.3668 N.am    1  UNL1       -0.2988
     14 H         142.1971  141.5746  163.1043 H       1  UNL1        0.1498
     15 C         143.4723  142.4012  164.6492 C.3     1  UNL1        0.1164
     16 C         143.2039  141.7305  165.9637 C.ar    1  UNL1       -0.0024
     17 C         143.2549  142.5247  167.2352 C.ar    1  UNL1        0.0005
     18 C         142.9865  141.8538  168.5497 C.ar    1  UNL1        0.0366
     19 C         142.6671  140.3888  168.5928 C.ar    1  UNL1        0.1390
     20 C         142.6161  139.5947  167.3213 C.ar    1  UNL1        0.0366
     21 C         142.8845  140.2655  166.0067 C.ar    1  UNL1        0.0005
     22 O         142.3987  139.7181  169.9074 O.3     1  UNL1       -0.4666
     23 C         140.9874  139.5326  170.3804 C.3     1  UNL1        0.3081
     24 C         140.0177  140.6750  170.3135 C.3     1  UNL1        0.4380
     25 F         139.0479  141.8174  170.2465 F       1  UNL1       -0.1663
     26 F         139.3843  140.0661  169.0977 F       1  UNL1       -0.1663
     27 F         140.6511  141.2839  171.5292 F       1  UNL1       -0.1663
     28 C         143.1561  138.1190  162.2020 C.3     1  UNL1        0.1007
     29 C         141.7603  137.6576  162.4997 C.3     1  UNL1        0.0673
     30 C         140.8932  138.4463  163.4357 C.ar    1  UNL1        0.0607
     31 C         140.3131  137.7898  164.6534 C.ar    1  UNL1        0.0148
     32 C         139.4460  138.5785  165.5894 C.ar    1  UNL1        0.0028
     33 C         139.1590  140.0237  165.3078 C.ar    1  UNL1        0.0207
     34 C         139.7391  140.6801  164.0902 C.ar    1  UNL1        0.0984
     35 N         140.6062  139.8914  163.1542 N.ar    1  UNL1       -0.2481
@<TRIPOS>BOND
     1    11    12    2
     2    12    13   am
     3    13    15    1
     4    15    16    1
     5    16    17   ar
     6    17    18   ar
     7    18    19   ar
     8    19    22    1
     9    22    23    1
    10    23    24    1
    11    24    25    1
    12    24    26    1
    13    24    27    1
    14    19    20   ar
    15    20    21   ar
    16    12     1    1
    17     1     2    1
    18     2     3   ar
    19     3     4   ar
    20     4     5   ar
    21     5     6   ar
    22     6     7   ar
    23     7     8    1
    24     8     9    2
    25     8    10   am
    26    10    28    1
    27    28    29    1
    28    29    30    1
    29    30    31   ar
    30    31    32   ar
    31    32    33   ar
    32    33    34   ar
    33    34    35   ar
    34    21    16   ar
    35    10     1    1
    36    35    30   ar
    37     7     2   ar
    38    13    14    1
@<TRIPOS>MOLECULE
*****
 35 38 0 0 0
SMALL
GASTEIGER

@<TRIPOS>ATOM
      1 C         142.0131  144.0272  160.9896 C.3     1  UNL1        0.1751
      2 C         141.8807  144.3227  159.5249 C.ar    1  UNL1        0.0089
      3 C         142.6121  143.7980  158.3251 C.ar    1  UNL1       -0.0021
      4 C         142.2533  144.2891  156.9540 C.ar    1  UNL1       -0.0003
      5 C         141.1630  145.3050  156.7827 C.ar    1  UNL1        0.0001
      6 C         140.4316  145.8297  157.9826 C.ar    1  UNL1        0.0043
      7 C         140.7904  145.3385  159.3537 C.ar    1  UNL1        0.0516
      8 C         140.2490  145.6708  160.7125 C.2     1  UNL1        0.2493
      9 O         139.1456  146.6430  161.0083 O.2     1  UNL1       -0.2699
     10 N         141.0046  144.8604  161.7236 N.am    1  UNL1       -0.2657
     11 O         144.3230  143.5526  162.0799 O.2     1  UNL1       -0.2729
     12 C         142.9835  143.0670  161.6111 C.2     1  UNL1        0.2451
     13 N         142.6144  141.6211  161.7638 N.am    1  UNL1       -0.2988
     14 H         141.7353  141.3023  161.4561 H       1  UNL1        0.1498
     15 C         143.5849  140.6609  162.3853 C.3     1  UNL1        0.1164
     16 C         143.4400  140.2768  163.8280 C.ar    1  UNL1       -0.0024
     17 C         143.4792  138.8314  164.2269 C.ar    1  UNL1        0.0005
     18 C         143.3343  138.4473  165.6697 C.ar    1  UNL1        0.0366
     19 C         143.1502  139.5087  166.7136 C.ar    1  UNL1        0.1390
     20 C         143.1110  140.9541  166.3146 C.ar    1  UNL1        0.0366
     21 C         143.2559  141.3382  164.8718 C.ar    1  UNL1        0.0005
     22 O         143.0053  139.1246  168.1563 O.3     1  UNL1       -0.4666
     23 C         142.5442  140.1394  169.1600 C.3     1  UNL1        0.3081
     24 C         141.3549  139.8500  170.0271 C.3     1  UNL1        0.4380
     25 F         140.1657  139.5606  170.8942 F       1  UNL1       -0.1663
     26 F         140.7794  141.1925  169.6858 F       1  UNL1       -0.1663
     27 F         141.9305  138.5076  170.3684 F       1  UNL1       -0.1663
     28 C         140.7895  144.8797  163.2079 C.3     1  UNL1        0.1007
     29 C         139.5761  144.2249  163.7985 C.3     1  UNL1        0.0673
     30 C         139.6239  142.7803  164.1997 C.ar    1  UNL1        0.0607
     31 C         139.5193  142.4000  165.6469 C.ar    1  UNL1        0.0148
     32 C         139.5670  140.9554  166.0481 C.ar    1  UNL1        0.0028
     33 C         139.7193  139.8911  165.0020 C.ar    1  UNL1        0.0207
     34 C         139.8239  140.2715  163.5548 C.ar    1  UNL1        0.0984
     35 N         139.7762  141.7161  163.1537 N.ar    1  UNL1       -0.2481
@<TRIPOS>BOND
     1    11    12    2
     2    12    13   am
     3    13    15    1
     4    15    16    1
     5    16    17   ar
     6    17    18   ar
     7    18    19   ar
     8    19    22    1
     9    22    23    1
    10    23    24    1
    11    24    25    1
    12    24    26    1
    13    24    27    1
    14    19    20   ar
    15    20    21   ar
    16    12     1    1
    17     1     2    1
    18     2     3   ar
    19     3     4   ar
    20     4     5   ar
    21     5     6   ar
    22     6     7   ar
    23     7     8    1
    24     8     9    2
    25     8    10   am
    26    10    28    1
    27    28    29    1
    28    29    30    1
    29    30    31   ar
    30    31    32   ar
    31    32    33   ar
    32    33    34   ar
    33    34    35   ar
    34    21    16   ar
    35    10     1    1
    36    35    30   ar
    37     7     2   ar
    38    13    14    1
@<TRIPOS>MOLECULE
*****
 35 38 0 0 0
SMALL
GASTEIGER

@<TRIPOS>ATOM
      1 C         140.7282  140.2374  160.3809 C.3     1  UNL1        0.1751
      2 C         141.0282  139.2691  159.2753 C.ar    1  UNL1        0.0089
      3 C         142.2769  138.5257  158.9035 C.ar    1  UNL1       -0.0021
      4 C         142.2772  137.6052  157.7192 C.ar    1  UNL1       -0.0003
      5 C         141.0289  137.4282  156.9066 C.ar    1  UNL1        0.0001
      6 C         139.7802  138.1715  157.2784 C.ar    1  UNL1        0.0043
      7 C         139.7799  139.0920  158.4627 C.ar    1  UNL1        0.0516
      8 C         138.7084  139.9509  159.0661 C.2     1  UNL1        0.2493
      9 O         137.2983  140.0793  158.5709 O.2     1  UNL1       -0.2699
     10 N         139.2944  140.6588  160.2516 N.am    1  UNL1       -0.2657
     11 O         142.7881  141.6619  161.0717 O.2     1  UNL1       -0.2729
     12 C         141.6926  140.7027  161.4313 C.2     1  UNL1        0.2451
     13 N         141.5614  140.2085  162.8416 N.am    1  UNL1       -0.2988
     14 H         140.8424  139.5789  163.0777 H       1  UNL1        0.1498
     15 C         142.5259  140.6738  163.8920 C.3     1  UNL1        0.1164
     16 C         142.0798  140.7943  165.3191 C.ar    1  UNL1       -0.0024
     17 C         141.4047  142.0480  165.7906 C.ar    1  UNL1        0.0005
     18 C         140.9587  142.1684  167.2177 C.ar    1  UNL1        0.0366
     19 C         141.1877  141.0350  168.1733 C.ar    1  UNL1        0.1390
     20 C         141.8628  139.7813  167.7018 C.ar    1  UNL1        0.0366
     21 C         142.3088  139.6609  166.2746 C.ar    1  UNL1        0.0005
     22 O         140.7416  141.1555  169.6003 O.3     1  UNL1       -0.4666
     23 C         141.7089  141.6105  170.6527 C.3     1  UNL1        0.3081
     24 C         143.0601  142.1272  170.2563 C.3     1  UNL1        0.4380
     25 F         144.4114  142.6439  169.8599 F       1  UNL1       -0.1663
     26 F         142.4950  143.5112  170.1338 F       1  UNL1       -0.1663
     27 F         143.6253  140.7431  170.3787 F       1  UNL1       -0.1663
     28 C         138.5733  141.6194  161.1500 C.3     1  UNL1        0.1007
     29 C         137.6009  141.1063  162.1703 C.3     1  UNL1        0.0673
     30 C         138.0624  140.1554  163.2347 C.ar    1  UNL1        0.0607
     31 C         138.0596  140.5810  164.6731 C.ar    1  UNL1        0.0148
     32 C         138.5212  139.6301  165.7374 C.ar    1  UNL1        0.0028
     33 C         138.9855  138.2537  165.3633 C.ar    1  UNL1        0.0207
     34 C         138.9883  137.8282  163.9250 C.ar    1  UNL1        0.0984
     35 N         138.5268  138.7791  162.8606 N.ar    1  UNL1       -0.2481
@<TRIPOS>BOND
     1    11    12    2
     2    12    13   am
     3    13    15    1
     4    15    16    1
     5    16    17   ar
     6    17    18   ar
     7    18    19   ar
     8    19    22    1
     9    22    23    1
    10    23    24    1
    11    24    25    1
    12    24    26    1
    13    24    27    1
    14    19    20   ar
    15    20    21   ar
    16    12     1    1
    17     1     2    1
    18     2     3   ar
    19     3     4   ar
    20     4     5   ar
    21     5     6   ar
    22     6     7   ar
    23     7     8    1
    24     8     9    2
    25     8    10   am
    26    10    28    1
    27    28    29    1
    28    29    30    1
    29    30    31   ar
    30    31    32   ar
    31    32    33   ar
    32    33    34   ar
    33    34    35   ar
    34    21    16   ar
    35    10     1    1
    36    35    30   ar
    37     7     2   ar
    38    13    14    1
@<TRIPOS>MOLECULE
*****
 35 38 0 0 0
SMALL
GASTEIGER

@<TRIPOS>ATOM
      1 C         141.3927  141.2174  166.7393 C.3     1  UNL1        0.1751
      2 C         141.6810  141.5872  168.1641 C.ar    1  UNL1        0.0089
      3 C         142.7484  142.4397  168.7835 C.ar    1  UNL1       -0.0021
      4 C         142.7857  142.6322  170.2706 C.ar    1  UNL1       -0.0003
      5 C         141.7555  141.9720  171.1383 C.ar    1  UNL1        0.0001
      6 C         140.6880  141.1195  170.5189 C.ar    1  UNL1        0.0043
      7 C         140.6508  140.9271  169.0318 C.ar    1  UNL1        0.0516
      8 C         139.7258  140.1493  168.1433 C.2     1  UNL1        0.2493
      9 O         138.5490  139.3351  168.5927 O.2     1  UNL1       -0.2699
     10 N         140.1843  140.3287  166.7264 N.am    1  UNL1       -0.2657
     11 O         143.5415  141.0940  165.2842 O.2     1  UNL1       -0.2729
     12 C         142.1754  141.6588  165.5382 C.2     1  UNL1        0.2451
     13 N         141.5918  142.6650  164.5910 N.am    1  UNL1       -0.2988
     14 H         140.6951  143.0357  164.7576 H       1  UNL1        0.1498
     15 C         142.3745  143.1064  163.3899 C.3     1  UNL1        0.1164
     16 C         141.6772  143.3286  162.0806 C.ar    1  UNL1       -0.0024
     17 C         141.3674  144.7231  161.6230 C.ar    1  UNL1        0.0005
     18 C         140.6701  144.9453  160.3137 C.ar    1  UNL1        0.0366
     19 C         140.2825  143.7730  159.4619 C.ar    1  UNL1        0.1390
     20 C         140.5922  142.3785  159.9195 C.ar    1  UNL1        0.0366
     21 C         141.2896  142.1563  161.2289 C.ar    1  UNL1        0.0005
     22 O         139.5851  143.9952  158.1526 O.3     1  UNL1       -0.4666
     23 C         140.3579  144.4885  156.9654 C.3     1  UNL1        0.3081
     24 C         141.4744  145.4725  157.1535 C.3     1  UNL1        0.4380
     25 F         142.5908  146.4565  157.3415 F       1  UNL1       -0.1663
     26 F         140.4743  146.5837  157.2764 F       1  UNL1       -0.1663
     27 F         142.4744  144.3613  157.0306 F       1  UNL1       -0.1663
     28 C         139.5465  139.7254  165.5102 C.3     1  UNL1        0.1007
     29 C         138.2303  140.2483  165.0161 C.3     1  UNL1        0.0673
     30 C         138.1638  141.5760  164.3213 C.ar    1  UNL1        0.0607
     31 C         137.8381  141.6415  162.8585 C.ar    1  UNL1        0.0148
     32 C         137.7716  142.9692  162.1637 C.ar    1  UNL1        0.0028
     33 C         138.0309  144.2314  162.9317 C.ar    1  UNL1        0.0207
     34 C         138.3566  144.1659  164.3944 C.ar    1  UNL1        0.0984
     35 N         138.4231  142.8381  165.0892 N.ar    1  UNL1       -0.2481
@<TRIPOS>BOND
     1    11    12    2
     2    12    13   am
     3    13    15    1
     4    15    16    1
     5    16    17   ar
     6    17    18   ar
     7    18    19   ar
     8    19    22    1
     9    22    23    1
    10    23    24    1
    11    24    25    1
    12    24    26    1
    13    24    27    1
    14    19    20   ar
    15    20    21   ar
    16    12     1    1
    17     1     2    1
    18     2     3   ar
    19     3     4   ar
    20     4     5   ar
    21     5     6   ar
    22     6     7   ar
    23     7     8    1
    24     8     9    2
    25     8    10   am
    26    10    28    1
    27    28    29    1
    28    29    30    1
    29    30    31   ar
    30    31    32   ar
    31    32    33   ar
    32    33    34   ar
    33    34    35   ar
    34    21    16   ar
    35    10     1    1
    36    35    30   ar
    37     7     2   ar
    38    13    14    1
@<TRIPOS>MOLECULE
*****
 35 38 0 0 0
SMALL
GASTEIGER

@<TRIPOS>ATOM
      1 C         142.2217  143.7214  160.8029 C.3     1  UNL1        0.1751
      2 C         141.7710  144.2961  159.4927 C.ar    1  UNL1        0.0089
      3 C         140.6168  145.1826  159.1295 C.ar    1  UNL1       -0.0021
      4 C         140.4146  145.6042  157.7042 C.ar    1  UNL1       -0.0003
      5 C         141.3666  145.1394  156.6423 C.ar    1  UNL1        0.0001
      6 C         142.5208  144.2530  157.0056 C.ar    1  UNL1        0.0043
      7 C         142.7230  143.8313  158.4308 C.ar    1  UNL1        0.0516
      8 C         143.7620  142.9694  159.0847 C.2     1  UNL1        0.2493
      9 O         144.9093  142.2940  158.3938 O.2     1  UNL1       -0.2699
     10 N         143.4522  142.9015  160.5508 N.am    1  UNL1       -0.2657
     11 O         141.4856  145.3053  162.7263 O.2     1  UNL1       -0.2729
     12 C         141.5583  143.9301  162.1320 C.2     1  UNL1        0.2451
     13 N         140.9676  142.7634  162.8668 N.am    1  UNL1       -0.2988
     14 H         141.0153  141.8607  162.4768 H       1  UNL1        0.1498
     15 C         140.3042  142.9720  164.1959 C.3     1  UNL1        0.1164
     16 C         141.0689  142.7259  165.4626 C.ar    1  UNL1       -0.0024
     17 C         140.3387  142.5967  166.7665 C.ar    1  UNL1        0.0005
     18 C         141.1035  142.3506  168.0331 C.ar    1  UNL1        0.0366
     19 C         142.5985  142.2335  167.9960 C.ar    1  UNL1        0.1390
     20 C         143.3287  142.3626  166.6921 C.ar    1  UNL1        0.0366
     21 C         142.5639  142.6088  165.4254 C.ar    1  UNL1        0.0005
     22 O         143.3632  141.9873  169.2627 O.3     1  UNL1       -0.4666
     23 C         143.0954  140.7536  170.0728 C.3     1  UNL1        0.3081
     24 C         141.7933  140.6033  170.8020 C.3     1  UNL1        0.4380
     25 F         140.4911  140.4529  171.5313 F       1  UNL1       -0.1663
     26 F         142.0838  141.8533  171.5786 F       1  UNL1       -0.1663
     27 F         141.5027  139.3533  170.0255 F       1  UNL1       -0.1663
     28 C         144.2353  142.1462  161.5834 C.3     1  UNL1        0.1007
     29 C         144.1072  140.6548  161.6792 C.3     1  UNL1        0.0673
     30 C         143.5296  140.0295  162.9143 C.ar    1  UNL1        0.0607
     31 C         144.4355  139.5889  164.0257 C.ar    1  UNL1        0.0148
     32 C         143.8579  138.9635  165.2608 C.ar    1  UNL1        0.0028
     33 C         142.3745  138.7788  165.3844 C.ar    1  UNL1        0.0207
     34 C         141.4686  139.2194  164.2730 C.ar    1  UNL1        0.0984
     35 N         142.0462  139.8448  163.0379 N.ar    1  UNL1       -0.2481
@<TRIPOS>BOND
     1    11    12    2
     2    12    13   am
     3    13    15    1
     4    15    16    1
     5    16    17   ar
     6    17    18   ar
     7    18    19   ar
     8    19    22    1
     9    22    23    1
    10    23    24    1
    11    24    25    1
    12    24    26    1
    13    24    27    1
    14    19    20   ar
    15    20    21   ar
    16    12     1    1
    17     1     2    1
    18     2     3   ar
    19     3     4   ar
    20     4     5   ar
    21     5     6   ar
    22     6     7   ar
    23     7     8    1
    24     8     9    2
    25     8    10   am
    26    10    28    1
    27    28    29    1
    28    29    30    1
    29    30    31   ar
    30    31    32   ar
    31    32    33   ar
    32    33    34   ar
    33    34    35   ar
    34    21    16   ar
    35    10     1    1
    36    35    30   ar
    37     7     2   ar
    38    13    14    1
@<TRIPOS>MOLECULE
*****
 35 38 0 0 0
SMALL
GASTEIGER

@<TRIPOS>ATOM
      1 C         142.5364  143.8105  161.2467 C.3     1  UNL1        0.1751
      2 C         142.9733  143.3102  159.9018 C.ar    1  UNL1        0.0089
      3 C         144.0024  142.2983  159.4931 C.ar    1  UNL1       -0.0021
      4 C         144.2237  141.9984  158.0402 C.ar    1  UNL1       -0.0003
      5 C         143.4159  142.7105  156.9959 C.ar    1  UNL1        0.0001
      6 C         142.3869  143.7224  157.4045 C.ar    1  UNL1        0.0043
      7 C         142.1656  144.0223  158.8575 C.ar    1  UNL1        0.0516
      8 C         141.2295  144.9626  159.5570 C.2     1  UNL1        0.2493
      9 O         140.2382  145.8739  158.8960 O.2     1  UNL1       -0.2699
     10 N         141.4586  144.8317  161.0336 N.am    1  UNL1       -0.2657
     11 O         143.8883  144.3171  163.4066 O.2     1  UNL1       -0.2729
     12 C         143.0815  143.3673  162.5720 C.2     1  UNL1        0.2451
     13 N         142.8198  141.9741  163.0626 N.am    1  UNL1       -0.2988
     14 H         142.2903  141.3506  162.5148 H       1  UNL1        0.1498
     15 C         143.3650  141.5309  164.3879 C.3     1  UNL1        0.1164
     16 C         142.4720  141.4970  165.5926 C.ar    1  UNL1       -0.0024
     17 C         142.6675  140.4430  166.6418 C.ar    1  UNL1        0.0005
     18 C         141.7745  140.4092  167.8465 C.ar    1  UNL1        0.0366
     19 C         140.6860  141.4295  168.0022 C.ar    1  UNL1        0.1390
     20 C         140.4905  142.4836  166.9530 C.ar    1  UNL1        0.0366
     21 C         141.3835  142.5173  165.7482 C.ar    1  UNL1        0.0005
     22 O         139.7930  141.3957  169.2069 O.3     1  UNL1       -0.4666
     23 C         140.0982  142.2640  170.3914 C.3     1  UNL1        0.3081
     24 C         141.3957  143.0137  170.4572 C.3     1  UNL1        0.4380
     25 F         142.6933  143.7634  170.5231 F       1  UNL1       -0.1663
     26 F         142.0561  141.8165  171.0741 F       1  UNL1       -0.1663
     27 F         140.7353  144.2109  169.8404 F       1  UNL1       -0.1663
     28 C         140.7367  145.5891  162.1084 C.3     1  UNL1        0.1007
     29 C         139.2504  145.4501  162.2548 C.3     1  UNL1        0.0673
     30 C         138.6521  144.1189  162.6009 C.ar    1  UNL1        0.0607
     31 C         138.3139  143.7963  164.0263 C.ar    1  UNL1        0.0148
     32 C         137.7156  142.4650  164.3724 C.ar    1  UNL1        0.0028
     33 C         137.4555  141.4563  163.2930 C.ar    1  UNL1        0.0207
     34 C         137.7936  141.7789  161.8677 C.ar    1  UNL1        0.0984
     35 N         138.3919  143.1102  161.5217 N.ar    1  UNL1       -0.2481
@<TRIPOS>BOND
     1    11    12    2
     2    12    13   am
     3    13    15    1
     4    15    16    1
     5    16    17   ar
     6    17    18   ar
     7    18    19   ar
     8    19    22    1
     9    22    23    1
    10    23    24    1
    11    24    25    1
    12    24    26    1
    13    24    27    1
    14    19    20   ar
    15    20    21   ar
    16    12     1    1
    17     1     2    1
    18     2     3   ar
    19     3     4   ar
    20     4     5   ar
    21     5     6   ar
    22     6     7   ar
    23     7     8    1
    24     8     9    2
    25     8    10   am
    26    10    28    1
    27    28    29    1
    28    29    30    1
    29    30    31   ar
    30    31    32   ar
    31    32    33   ar
    32    33    34   ar
    33    34    35   ar
    34    21    16   ar
    35    10     1    1
    36    35    30   ar
    37     7     2   ar
    38    13    14    1
