@<TRIPOS>MOLECULE
*****
 32 36 0 0 0
SMALL
GASTEIGER

@<TRIPOS>ATOM
      1 C         141.4076  142.7312  163.8032 C.ar    1  UNL1        0.0656
      2 C         140.8936  142.0629  162.5626 C.ar    1  UNL1        0.0877
      3 C         140.2642  140.7618  162.9636 C.ar    1  UNL1        0.1262
      4 N         140.3891  140.6258  164.4522 N.ar    1  UNL1       -0.1637
      5 N         141.0958  141.8430  164.9712 N.ar    1  UNL1       -0.2335
      6 C         141.4317  142.1228  166.4061 C.ar    1  UNL1        0.0824
      7 C         140.3896  142.6911  167.3232 C.ar    1  UNL1        0.0192
      8 C         140.7255  142.9709  168.7581 C.ar    1  UNL1        0.0027
      9 C         142.1034  142.6824  169.2758 C.ar    1  UNL1        0.0141
     10 C         143.1455  142.1141  168.3586 C.ar    1  UNL1        0.0027
     11 C         142.8096  141.8342  166.9238 C.ar    1  UNL1        0.0192
     12 C         142.4393  142.9622  170.7107 C.2     1  UNL1        0.0729
     13 O         141.7404  142.2109  171.8048 O.co2   1  UNL1       -0.5446
     14 O         143.4741  143.9933  171.0514 O.co2   1  UNL1       -0.5446
     15 C         140.7938  144.7438  164.0725 C.3     1  UNL1        0.0059
     16 C         142.1101  144.0551  163.8652 C.3     1  UNL1        0.0357
     17 C         143.4264  143.3664  163.6579 C.3     1  UNL1        0.0059
     18 C         142.8125  145.3790  163.9272 C.3     1  UNL1        0.0059
     19 C         140.9919  142.6014  161.1659 C.2     1  UNL1        0.2485
     20 O         142.1119  142.1623  160.2699 O.2     1  UNL1       -0.2700
     21 N         139.9702  143.5788  160.6654 N.am    1  UNL1       -0.3024
     22 H         139.2351  143.8670  161.2535 H       1  UNL1        0.1497
     23 C         140.0685  144.1173  159.2687 C.3     1  UNL1        0.0717
     24 C         139.2736  143.4865  158.1641 C.3     1  UNL1        0.0180
     25 C         140.1667  144.6557  157.8722 C.3     1  UNL1        0.0016
     26 C         140.2650  145.1941  156.4756 C.3     1  UNL1        0.0001
     27 C         139.4701  144.5632  155.3710 C.3     1  UNL1        0.0000
     28 C         138.5770  143.3940  155.6629 C.3     1  UNL1        0.0001
     29 C         138.4788  142.8556  157.0594 C.3     1  UNL1        0.0016
     30 C         139.9871  144.2473  158.5076 C.3     1  UNL1        0.0016
     31 C         140.9616  145.2865  158.9768 C.3     1  UNL1        0.0180
     32 C         141.0598  145.8249  157.5803 C.3     1  UNL1        0.0016
@<TRIPOS>UNITY_ATOM_ATTR
13 1
charge -1
@<TRIPOS>BOND
     1    15    16    1
     2    16    17    1
     3    16    18    1
     4    16     1    1
     5     1     2   ar
     6     2    19    1
     7    19    20    2
     8    19    21   am
     9    21    23    1
    10    23    24    1
    11    24    25    1
    12    25    26    1
    13    26    27    1
    14    27    28    1
    15    28    29    1
    16    28    30    1
    17    30    31    1
    18    31    32    1
    19     2     3   ar
    20     3     4   ar
    21     4     5   ar
    22     5     6    1
    23     6     7   ar
    24     7     8   ar
    25     8     9   ar
    26     9    12    1
    27    12    13   ar
    28    12    14   ar
    29     9    10   ar
    30    10    11   ar
    31     5     1   ar
    32    11     6   ar
    33    31    23    1
    34    29    24    1
    35    32    26    1
    36    21    22    1
@<TRIPOS>MOLECULE
*****
 32 36 0 0 0
SMALL
GASTEIGER

@<TRIPOS>ATOM
      1 C         140.4787  139.7611  164.5183 C.ar    1  UNL1        0.0656
      2 C         141.0771  138.7677  163.5669 C.ar    1  UNL1        0.0877
      3 C         142.1632  138.0286  164.2908 C.ar    1  UNL1        0.1262
      4 N         142.2361  138.5651  165.6897 N.ar    1  UNL1       -0.1637
      5 N         141.1950  139.6358  165.8303 N.ar    1  UNL1       -0.2335
      6 C         140.9188  140.4401  167.0660 C.ar    1  UNL1        0.0824
      7 C         141.6954  141.6953  167.3331 C.ar    1  UNL1        0.0192
      8 C         141.4192  142.4996  168.5687 C.ar    1  UNL1        0.0027
      9 C         140.3663  142.0486  169.5373 C.ar    1  UNL1        0.0141
     10 C         139.5897  140.7934  169.2702 C.ar    1  UNL1        0.0027
     11 C         139.8659  139.9892  168.0345 C.ar    1  UNL1        0.0192
     12 C         140.0901  142.8529  170.7729 C.2     1  UNL1        0.0729
     13 O         140.2954  142.2415  172.1272 O.co2   1  UNL1       -0.5446
     14 O         139.6085  144.2685  170.6543 O.co2   1  UNL1       -0.5446
     15 C         140.3570  141.7378  163.7581 C.3     1  UNL1        0.0059
     16 C         139.3604  140.7126  164.2117 C.3     1  UNL1        0.0357
     17 C         138.3638  139.6875  164.6653 C.3     1  UNL1        0.0059
     18 C         138.2421  141.6641  163.9051 C.3     1  UNL1        0.0059
     19 C         140.6621  138.5516  162.1417 C.2     1  UNL1        0.2485
     20 O         139.5482  137.5996  161.8211 O.2     1  UNL1       -0.2700
     21 N         141.3612  139.2873  161.0372 N.am    1  UNL1       -0.3024
     22 H         142.0923  139.9121  161.2476 H       1  UNL1        0.1497
     23 C         140.9462  139.0711  159.6120 C.3     1  UNL1        0.0717
     24 C         141.7995  138.2401  158.7002 C.3     1  UNL1        0.0180
     25 C         140.5313  138.8549  158.1868 C.3     1  UNL1        0.0016
     26 C         140.1165  138.6387  156.7617 C.3     1  UNL1        0.0001
     27 C         140.9698  137.8077  155.8499 C.3     1  UNL1        0.0000
     28 C         142.2380  137.1929  156.3634 C.3     1  UNL1        0.0001
     29 C         142.6528  137.4091  157.7885 C.3     1  UNL1        0.0016
     30 C         140.9029  138.8512  158.8686 C.3     1  UNL1        0.0016
     31 C         139.6780  139.6860  159.0986 C.3     1  UNL1        0.0180
     32 C         139.2632  139.4698  157.6734 C.3     1  UNL1        0.0016
@<TRIPOS>UNITY_ATOM_ATTR
13 1
charge -1
@<TRIPOS>BOND
     1    15    16    1
     2    16    17    1
     3    16    18    1
     4    16     1    1
     5     1     2   ar
     6     2    19    1
     7    19    20    2
     8    19    21   am
     9    21    23    1
    10    23    24    1
    11    24    25    1
    12    25    26    1
    13    26    27    1
    14    27    28    1
    15    28    29    1
    16    28    30    1
    17    30    31    1
    18    31    32    1
    19     2     3   ar
    20     3     4   ar
    21     4     5   ar
    22     5     6    1
    23     6     7   ar
    24     7     8   ar
    25     8     9   ar
    26     9    12    1
    27    12    13   ar
    28    12    14   ar
    29     9    10   ar
    30    10    11   ar
    31     5     1   ar
    32    11     6   ar
    33    31    23    1
    34    29    24    1
    35    32    26    1
    36    21    22    1
@<TRIPOS>MOLECULE
*****
 32 36 0 0 0
SMALL
GASTEIGER

@<TRIPOS>ATOM
      1 C         139.6804  142.1667  163.7056 C.ar    1  UNL1        0.0656
      2 C         139.9528  141.8373  162.2678 C.ar    1  UNL1        0.0877
      3 C         140.6274  140.4985  162.2187 C.ar    1  UNL1        0.1262
      4 N         140.7720  140.0004  163.6261 N.ar    1  UNL1       -0.1637
      5 N         140.1867  141.0314  164.5452 N.ar    1  UNL1       -0.2335
      6 C         140.1195  140.9427  166.0410 C.ar    1  UNL1        0.0824
      7 C         139.2442  139.9135  166.6927 C.ar    1  UNL1        0.0192
      8 C         139.1770  139.8248  168.1886 C.ar    1  UNL1        0.0027
      9 C         139.9851  140.7653  169.0327 C.ar    1  UNL1        0.0141
     10 C         140.8604  141.7944  168.3810 C.ar    1  UNL1        0.0027
     11 C         140.9276  141.8831  166.8851 C.ar    1  UNL1        0.0192
     12 C         139.9180  140.6766  170.5285 C.2     1  UNL1        0.0729
     13 O         140.3533  141.8401  171.3691 O.co2   1  UNL1       -0.5446
     14 O         139.4154  139.4243  171.1838 O.co2   1  UNL1       -0.5446
     15 C         137.7108  142.6821  164.3015 C.3     1  UNL1        0.0059
     16 C         139.0180  143.4126  164.2145 C.3     1  UNL1        0.0357
     17 C         140.3252  144.1431  164.1275 C.3     1  UNL1        0.0059
     18 C         138.3556  144.6585  164.7235 C.3     1  UNL1        0.0059
     19 C         139.6106  142.6960  161.0864 C.2     1  UNL1        0.2485
     20 O         138.2303  143.2671  160.9491 O.2     1  UNL1       -0.2700
     21 N         140.6485  142.9837  160.0425 N.am    1  UNL1       -0.3024
     22 H         141.5544  142.6089  160.1326 H       1  UNL1        0.1497
     23 C         140.3063  143.8424  158.8611 C.3     1  UNL1        0.0717
     24 C         139.6176  143.2417  157.6717 C.3     1  UNL1        0.0180
     25 C         139.9641  144.7011  157.6798 C.3     1  UNL1        0.0016
     26 C         139.6219  145.5598  156.4985 C.3     1  UNL1        0.0001
     27 C         138.9332  144.9591  155.3091 C.3     1  UNL1        0.0000
     28 C         138.5867  143.4997  155.3009 C.3     1  UNL1        0.0001
     29 C         138.9289  142.6410  156.4822 C.3     1  UNL1        0.0016
     30 C         140.0552  144.1124  158.1779 C.3     1  UNL1        0.0016
     31 C         140.6528  145.3018  158.8693 C.3     1  UNL1        0.0180
     32 C         140.3106  146.1605  157.6880 C.3     1  UNL1        0.0016
@<TRIPOS>UNITY_ATOM_ATTR
13 1
charge -1
@<TRIPOS>BOND
     1    15    16    1
     2    16    17    1
     3    16    18    1
     4    16     1    1
     5     1     2   ar
     6     2    19    1
     7    19    20    2
     8    19    21   am
     9    21    23    1
    10    23    24    1
    11    24    25    1
    12    25    26    1
    13    26    27    1
    14    27    28    1
    15    28    29    1
    16    28    30    1
    17    30    31    1
    18    31    32    1
    19     2     3   ar
    20     3     4   ar
    21     4     5   ar
    22     5     6    1
    23     6     7   ar
    24     7     8   ar
    25     8     9   ar
    26     9    12    1
    27    12    13   ar
    28    12    14   ar
    29     9    10   ar
    30    10    11   ar
    31     5     1   ar
    32    11     6   ar
    33    31    23    1
    34    29    24    1
    35    32    26    1
    36    21    22    1
@<TRIPOS>MOLECULE
*****
 32 36 0 0 0
SMALL
GASTEIGER

@<TRIPOS>ATOM
      1 C         140.3997  139.9136  164.4863 C.ar    1  UNL1        0.0656
      2 C         139.5668  139.6326  163.2708 C.ar    1  UNL1        0.0877
      3 C         138.1768  140.1299  163.5362 C.ar    1  UNL1        0.1262
      4 N         138.1505  140.7183  164.9157 N.ar    1  UNL1       -0.1637
      5 N         139.5243  140.5846  165.5030 N.ar    1  UNL1       -0.2335
      6 C         139.9483  141.0416  166.8673 C.ar    1  UNL1        0.0824
      7 C         139.8524  140.1054  168.0353 C.ar    1  UNL1        0.0192
      8 C         140.2764  140.5625  169.3996 C.ar    1  UNL1        0.0027
      9 C         140.7963  141.9557  169.5958 C.ar    1  UNL1        0.0141
     10 C         140.8922  142.8919  168.4278 C.ar    1  UNL1        0.0027
     11 C         140.4682  142.4349  167.0635 C.ar    1  UNL1        0.0192
     12 C         141.2203  142.4128  170.9601 C.2     1  UNL1        0.0729
     13 O         142.5387  143.1043  171.1433 O.co2   1  UNL1       -0.5446
     14 O         140.3258  142.1783  172.1413 O.co2   1  UNL1       -0.5446
     15 C         142.2240  140.9250  164.1004 C.3     1  UNL1        0.0059
     16 C         141.8527  139.5818  164.6555 C.3     1  UNL1        0.0357
     17 C         141.4814  138.2387  165.2105 C.3     1  UNL1        0.0059
     18 C         143.3057  139.2501  164.8247 C.3     1  UNL1        0.0059
     19 C         140.0409  138.9705  162.0110 C.2     1  UNL1        0.2485
     20 O         140.0888  137.4739  161.9226 O.2     1  UNL1       -0.2700
     21 N         140.4670  139.8050  160.8397 N.am    1  UNL1       -0.3024
     22 H         140.4356  140.7873  160.8978 H       1  UNL1        0.1497
     23 C         140.9411  139.1429  159.5800 C.3     1  UNL1        0.0717
     24 C         140.1190  139.2359  158.3287 C.3     1  UNL1        0.0180
     25 C         141.4151  138.4809  158.3202 C.3     1  UNL1        0.0016
     26 C         141.8891  137.8189  157.0605 C.3     1  UNL1        0.0001
     27 C         141.0670  137.9118  155.8093 C.3     1  UNL1        0.0000
     28 C         139.7710  138.6668  155.8178 C.3     1  UNL1        0.0001
     29 C         139.2970  139.3288  157.0775 C.3     1  UNL1        0.0016
     30 C         141.0143  138.8775  158.8540 C.3     1  UNL1        0.0016
     31 C         142.2372  138.3880  159.5714 C.3     1  UNL1        0.0180
     32 C         142.7112  137.7259  158.3117 C.3     1  UNL1        0.0016
@<TRIPOS>UNITY_ATOM_ATTR
13 1
charge -1
@<TRIPOS>BOND
     1    15    16    1
     2    16    17    1
     3    16    18    1
     4    16     1    1
     5     1     2   ar
     6     2    19    1
     7    19    20    2
     8    19    21   am
     9    21    23    1
    10    23    24    1
    11    24    25    1
    12    25    26    1
    13    26    27    1
    14    27    28    1
    15    28    29    1
    16    28    30    1
    17    30    31    1
    18    31    32    1
    19     2     3   ar
    20     3     4   ar
    21     4     5   ar
    22     5     6    1
    23     6     7   ar
    24     7     8   ar
    25     8     9   ar
    26     9    12    1
    27    12    13   ar
    28    12    14   ar
    29     9    10   ar
    30    10    11   ar
    31     5     1   ar
    32    11     6   ar
    33    31    23    1
    34    29    24    1
    35    32    26    1
    36    21    22    1
@<TRIPOS>MOLECULE
*****
 32 36 0 0 0
SMALL
GASTEIGER

@<TRIPOS>ATOM
      1 C         141.3825  142.7633  163.6753 C.ar    1  UNL1        0.0656
      2 C         141.0195  142.0527  162.4051 C.ar    1  UNL1        0.0877
      3 C         140.6809  140.6325  162.7488 C.ar    1  UNL1        0.1262
      4 N         140.8347  140.4651  164.2315 N.ar    1  UNL1       -0.1637
      5 N         141.2684  141.7821  164.8041 N.ar    1  UNL1       -0.2335
      6 C         141.5401  142.0676  166.2514 C.ar    1  UNL1        0.0824
      7 C         142.9163  141.8610  166.8111 C.ar    1  UNL1        0.0192
      8 C         143.1880  142.1466  168.2584 C.ar    1  UNL1        0.0027
      9 C         142.0835  142.6387  169.1459 C.ar    1  UNL1        0.0141
     10 C         140.7072  142.8453  168.5862 C.ar    1  UNL1        0.0027
     11 C         140.4355  142.5597  167.1390 C.ar    1  UNL1        0.0192
     12 C         142.3552  142.9242  170.5932 C.2     1  UNL1        0.0729
     13 O         143.3797  143.9509  170.9756 O.co2   1  UNL1       -0.5446
     14 O         141.6024  142.1830  171.6581 O.co2   1  UNL1       -0.5446
     15 C         143.2308  143.8042  163.6899 C.3     1  UNL1        0.0059
     16 C         141.7885  144.2023  163.7956 C.3     1  UNL1        0.0357
     17 C         140.3461  144.6003  163.9012 C.3     1  UNL1        0.0059
     18 C         142.1944  145.6413  163.9158 C.3     1  UNL1        0.0059
     19 C         140.9987  142.6566  161.0321 C.2     1  UNL1        0.2485
     20 O         139.7622  142.5589  160.1885 O.2     1  UNL1       -0.2700
     21 N         142.2142  143.3582  160.5028 N.am    1  UNL1       -0.3024
     22 H         143.0257  143.4223  161.0565 H       1  UNL1        0.1497
     23 C         142.1934  143.9620  159.1298 C.3     1  UNL1        0.0717
     24 C         142.8545  143.2498  157.9872 C.3     1  UNL1        0.0180
     25 C         142.1726  144.5658  157.7569 C.3     1  UNL1        0.0016
     26 C         142.1518  145.1696  156.3840 C.3     1  UNL1        0.0001
     27 C         142.8129  144.4574  155.2413 C.3     1  UNL1        0.0000
     28 C         143.4948  143.1414  155.4716 C.3     1  UNL1        0.0001
     29 C         143.5156  142.5376  156.8445 C.3     1  UNL1        0.0016
     30 C         142.2869  144.1070  158.3728 C.3     1  UNL1        0.0016
     31 C         141.5115  145.2780  158.8996 C.3     1  UNL1        0.0180
     32 C         141.4907  145.8818  157.5266 C.3     1  UNL1        0.0016
@<TRIPOS>UNITY_ATOM_ATTR
13 1
charge -1
@<TRIPOS>BOND
     1    15    16    1
     2    16    17    1
     3    16    18    1
     4    16     1    1
     5     1     2   ar
     6     2    19    1
     7    19    20    2
     8    19    21   am
     9    21    23    1
    10    23    24    1
    11    24    25    1
    12    25    26    1
    13    26    27    1
    14    27    28    1
    15    28    29    1
    16    28    30    1
    17    30    31    1
    18    31    32    1
    19     2     3   ar
    20     3     4   ar
    21     4     5   ar
    22     5     6    1
    23     6     7   ar
    24     7     8   ar
    25     8     9   ar
    26     9    12    1
    27    12    13   ar
    28    12    14   ar
    29     9    10   ar
    30    10    11   ar
    31     5     1   ar
    32    11     6   ar
    33    31    23    1
    34    29    24    1
    35    32    26    1
    36    21    22    1
@<TRIPOS>MOLECULE
*****
 32 36 0 0 0
SMALL
GASTEIGER

@<TRIPOS>ATOM
      1 C         141.2298  142.1357  163.8707 C.ar    1  UNL1        0.0656
      2 C         140.9022  141.2898  162.6761 C.ar    1  UNL1        0.0877
      3 C         140.7217  139.8763  163.1444 C.ar    1  UNL1        0.1262
      4 N         140.9377  139.8484  164.6285 N.ar    1  UNL1       -0.1637
      5 N         141.2518  141.2448  165.0774 N.ar    1  UNL1       -0.2335
      6 C         141.5376  141.6749  166.4857 C.ar    1  UNL1        0.0824
      7 C         142.9553  141.8515  166.9429 C.ar    1  UNL1        0.0192
      8 C         143.2411  142.2816  168.3512 C.ar    1  UNL1        0.0027
      9 C         142.1092  142.5350  169.3023 C.ar    1  UNL1        0.0141
     10 C         140.6915  142.3583  168.8452 C.ar    1  UNL1        0.0027
     11 C         140.4057  141.9283  167.4369 C.ar    1  UNL1        0.0192
     12 C         142.3950  142.9650  170.7107 C.2     1  UNL1        0.0729
     13 O         143.4568  143.9895  170.9811 O.co2   1  UNL1       -0.5446
     14 O         141.6191  142.3706  171.8485 O.co2   1  UNL1       -0.5446
     15 C         140.0449  143.8694  164.1710 C.3     1  UNL1        0.0059
     16 C         141.4898  143.6129  163.8606 C.3     1  UNL1        0.0357
     17 C         142.9348  143.3565  163.5502 C.3     1  UNL1        0.0059
     18 C         141.7498  145.0902  163.8504 C.3     1  UNL1        0.0059
     19 C         140.7771  141.7728  161.2614 C.2     1  UNL1        0.2485
     20 O         141.8570  141.4670  160.2663 O.2     1  UNL1       -0.2700
     21 N         139.5722  142.5615  160.8420 N.am    1  UNL1       -0.3024
     22 H         138.8634  142.7623  161.4952 H       1  UNL1        0.1497
     23 C         139.4470  143.0445  159.4274 C.3     1  UNL1        0.0717
     24 C         140.0669  144.3492  159.0227 C.3     1  UNL1        0.0180
     25 C         139.3219  143.5275  158.0128 C.3     1  UNL1        0.0016
     26 C         139.1969  144.0105  156.5983 C.3     1  UNL1        0.0001
     27 C         139.8167  145.3152  156.1936 C.3     1  UNL1        0.0000
     28 C         140.5617  146.1368  157.2035 C.3     1  UNL1        0.0001
     29 C         140.6867  145.6538  158.6181 C.3     1  UNL1        0.0016
     30 C         139.4900  143.4505  158.7670 C.3     1  UNL1        0.0016
     31 C         138.7021  142.2229  158.4175 C.3     1  UNL1        0.0180
     32 C         138.5770  142.7059  157.0029 C.3     1  UNL1        0.0016
@<TRIPOS>UNITY_ATOM_ATTR
13 1
charge -1
@<TRIPOS>BOND
     1    15    16    1
     2    16    17    1
     3    16    18    1
     4    16     1    1
     5     1     2   ar
     6     2    19    1
     7    19    20    2
     8    19    21   am
     9    21    23    1
    10    23    24    1
    11    24    25    1
    12    25    26    1
    13    26    27    1
    14    27    28    1
    15    28    29    1
    16    28    30    1
    17    30    31    1
    18    31    32    1
    19     2     3   ar
    20     3     4   ar
    21     4     5   ar
    22     5     6    1
    23     6     7   ar
    24     7     8   ar
    25     8     9   ar
    26     9    12    1
    27    12    13   ar
    28    12    14   ar
    29     9    10   ar
    30    10    11   ar
    31     5     1   ar
    32    11     6   ar
    33    31    23    1
    34    29    24    1
    35    32    26    1
    36    21    22    1
@<TRIPOS>MOLECULE
*****
 32 36 0 0 0
SMALL
GASTEIGER

@<TRIPOS>ATOM
      1 C         140.0788  143.3094  163.5014 C.ar    1  UNL1        0.0656
      2 C         139.1597  143.9734  162.5194 C.ar    1  UNL1        0.0877
      3 C         137.7601  143.8654  163.0482 C.ar    1  UNL1        0.1262
      4 N         137.8142  143.1346  164.3570 N.ar    1  UNL1       -0.1637
      5 N         139.2473  142.7909  164.6371 N.ar    1  UNL1       -0.2335
      6 C         139.7589  142.0576  165.8415 C.ar    1  UNL1        0.0824
      7 C         140.4847  142.8037  166.9216 C.ar    1  UNL1        0.0192
      8 C         140.9963  142.0704  168.1259 C.ar    1  UNL1        0.0027
      9 C         140.7821  140.5910  168.2502 C.ar    1  UNL1        0.0141
     10 C         140.0563  139.8449  167.1701 C.ar    1  UNL1        0.0027
     11 C         139.5447  140.5782  165.9657 C.ar    1  UNL1        0.0192
     12 C         141.2937  139.8577  169.4545 C.2     1  UNL1        0.0729
     13 O         142.7466  139.4978  169.5522 O.co2   1  UNL1       -0.5446
     14 O         140.3525  139.4843  170.5611 O.co2   1  UNL1       -0.5446
     15 C         141.4021  141.8178  162.7775 C.3     1  UNL1        0.0059
     16 C         141.5680  143.1855  163.3706 C.3     1  UNL1        0.0357
     17 C         141.7338  144.5532  163.9638 C.3     1  UNL1        0.0059
     18 C         143.0571  143.0616  163.2399 C.3     1  UNL1        0.0059
     19 C         139.5684  144.6302  161.2342 C.2     1  UNL1        0.2485
     20 O         139.5032  146.1228  161.1009 O.2     1  UNL1       -0.2700
     21 N         140.0424  143.7943  160.0824 N.am    1  UNL1       -0.3024
     22 H         140.0852  142.8146  160.1699 H       1  UNL1        0.1497
     23 C         140.4511  144.4511  158.7972 C.3     1  UNL1        0.0717
     24 C         139.6575  144.2116  157.5471 C.3     1  UNL1        0.0180
     25 C         140.8598  145.1078  157.5121 C.3     1  UNL1        0.0016
     26 C         141.2685  145.7645  156.2269 C.3     1  UNL1        0.0001
     27 C         140.4749  145.5250  154.9768 C.3     1  UNL1        0.0000
     28 C         139.2726  144.6289  155.0118 C.3     1  UNL1        0.0001
     29 C         138.8639  143.9721  156.2969 C.3     1  UNL1        0.0016
     30 C         140.5011  144.6916  158.0607 C.3     1  UNL1        0.0016
     31 C         141.6534  145.3472  158.7622 C.3     1  UNL1        0.0180
     32 C         142.0621  146.0039  157.4771 C.3     1  UNL1        0.0016
@<TRIPOS>UNITY_ATOM_ATTR
13 1
charge -1
@<TRIPOS>BOND
     1    15    16    1
     2    16    17    1
     3    16    18    1
     4    16     1    1
     5     1     2   ar
     6     2    19    1
     7    19    20    2
     8    19    21   am
     9    21    23    1
    10    23    24    1
    11    24    25    1
    12    25    26    1
    13    26    27    1
    14    27    28    1
    15    28    29    1
    16    28    30    1
    17    30    31    1
    18    31    32    1
    19     2     3   ar
    20     3     4   ar
    21     4     5   ar
    22     5     6    1
    23     6     7   ar
    24     7     8   ar
    25     8     9   ar
    26     9    12    1
    27    12    13   ar
    28    12    14   ar
    29     9    10   ar
    30    10    11   ar
    31     5     1   ar
    32    11     6   ar
    33    31    23    1
    34    29    24    1
    35    32    26    1
    36    21    22    1
@<TRIPOS>MOLECULE
*****
 32 36 0 0 0
SMALL
GASTEIGER

@<TRIPOS>ATOM
      1 C         142.4865  139.7748  164.2583 C.ar    1  UNL1        0.0656
      2 C         141.9516  138.8715  163.1868 C.ar    1  UNL1        0.0877
      3 C         140.7428  138.1705  163.7322 C.ar    1  UNL1        0.1262
      4 N         140.5306  138.6406  165.1408 N.ar    1  UNL1       -0.1637
      5 N         141.6082  139.6321  165.4659 N.ar    1  UNL1       -0.2335
      6 C         141.7778  140.3541  166.7698 C.ar    1  UNL1        0.0824
      7 C         142.6065  139.7454  167.8619 C.ar    1  UNL1        0.0192
      8 C         142.7761  140.4674  169.1657 C.ar    1  UNL1        0.0027
      9 C         142.1169  141.7980  169.3774 C.ar    1  UNL1        0.0141
     10 C         141.2882  142.4067  168.2853 C.ar    1  UNL1        0.0027
     11 C         141.1186  141.6847  166.9815 C.ar    1  UNL1        0.0192
     12 C         142.2865  142.5200  170.6812 C.2     1  UNL1        0.0729
     13 O         143.2305  143.6817  170.7780 O.co2   1  UNL1       -0.5446
     14 O         141.5121  142.0803  171.8883 O.co2   1  UNL1       -0.5446
     15 C         144.5628  139.5467  164.6284 C.3     1  UNL1        0.0059
     16 C         143.6885  140.6646  164.1425 C.3     1  UNL1        0.0357
     17 C         142.8143  141.7824  163.6566 C.3     1  UNL1        0.0059
     18 C         144.8906  141.5543  164.0267 C.3     1  UNL1        0.0059
     19 C         142.5250  138.6994  161.8114 C.2     1  UNL1        0.2485
     20 O         143.7130  137.8084  161.6002 O.2     1  UNL1       -0.2700
     21 N         141.9103  139.4184  160.6473 N.am    1  UNL1       -0.3024
     22 H         141.1305  140.0031  160.7859 H       1  UNL1        0.1497
     23 C         142.4836  139.2463  159.2719 C.3     1  UNL1        0.0717
     24 C         143.4357  140.2673  158.7231 C.3     1  UNL1        0.0180
     25 C         143.0570  139.0743  157.8965 C.3     1  UNL1        0.0016
     26 C         143.6303  138.9023  156.5212 C.3     1  UNL1        0.0001
     27 C         144.5824  139.9233  155.9724 C.3     1  UNL1        0.0000
     28 C         144.9610  141.1163  156.7989 C.3     1  UNL1        0.0001
     29 C         144.3877  141.2883  158.1743 C.3     1  UNL1        0.0016
     30 C         142.8732  139.3315  158.6057 C.3     1  UNL1        0.0016
     31 C         142.1050  138.0533  158.4453 C.3     1  UNL1        0.0180
     32 C         142.6783  137.8812  157.0700 C.3     1  UNL1        0.0016
@<TRIPOS>UNITY_ATOM_ATTR
13 1
charge -1
@<TRIPOS>BOND
     1    15    16    1
     2    16    17    1
     3    16    18    1
     4    16     1    1
     5     1     2   ar
     6     2    19    1
     7    19    20    2
     8    19    21   am
     9    21    23    1
    10    23    24    1
    11    24    25    1
    12    25    26    1
    13    26    27    1
    14    27    28    1
    15    28    29    1
    16    28    30    1
    17    30    31    1
    18    31    32    1
    19     2     3   ar
    20     3     4   ar
    21     4     5   ar
    22     5     6    1
    23     6     7   ar
    24     7     8   ar
    25     8     9   ar
    26     9    12    1
    27    12    13   ar
    28    12    14   ar
    29     9    10   ar
    30    10    11   ar
    31     5     1   ar
    32    11     6   ar
    33    31    23    1
    34    29    24    1
    35    32    26    1
    36    21    22    1
@<TRIPOS>MOLECULE
*****
 32 36 0 0 0
SMALL
GASTEIGER

@<TRIPOS>ATOM
      1 C         142.4886  139.6107  164.2229 C.ar    1  UNL1        0.0656
      2 C         143.4714  139.9494  163.1415 C.ar    1  UNL1        0.0877
      3 C         144.4398  140.9534  163.6930 C.ar    1  UNL1        0.1262
      4 N         144.0555  141.2352  165.1153 N.ar    1  UNL1       -0.1637
      5 N         142.8496  140.4054  165.4428 N.ar    1  UNL1       -0.2335
      6 C         142.1309  140.3755  166.7591 C.ar    1  UNL1        0.0824
      7 C         140.8593  141.1509  166.9371 C.ar    1  UNL1        0.0192
      8 C         140.1406  141.1210  168.2534 C.ar    1  UNL1        0.0027
      9 C         140.6936  140.3157  169.3916 C.ar    1  UNL1        0.0141
     10 C         141.9652  139.5403  169.2136 C.ar    1  UNL1        0.0027
     11 C         142.6839  139.5702  167.8974 C.ar    1  UNL1        0.0192
     12 C         139.9749  140.2858  170.7079 C.2     1  UNL1        0.0729
     13 O         140.5582  140.9898  171.8970 O.co2   1  UNL1       -0.5446
     14 O         138.6729  139.5519  170.8350 O.co2   1  UNL1       -0.5446
     15 C         140.5003  139.7236  163.4922 C.3     1  UNL1        0.0059
     16 C         141.3455  138.6466  164.1051 C.3     1  UNL1        0.0357
     17 C         142.1907  137.5696  164.7180 C.3     1  UNL1        0.0059
     18 C         140.2024  137.6825  163.9873 C.3     1  UNL1        0.0059
     19 C         143.4836  139.3834  161.7524 C.2     1  UNL1        0.2485
     20 O         144.0672  138.0246  161.5013 O.2     1  UNL1       -0.2700
     21 N         142.9122  140.1763  160.6144 N.am    1  UNL1       -0.3024
     22 H         142.5292  141.0681  160.7793 H       1  UNL1        0.1497
     23 C         142.9244  139.6103  159.2253 C.3     1  UNL1        0.0717
     24 C         143.8609  140.1698  158.1957 C.3     1  UNL1        0.0180
     25 C         142.9367  139.0444  157.8363 C.3     1  UNL1        0.0016
     26 C         142.9489  138.4784  156.4472 C.3     1  UNL1        0.0001
     27 C         143.8854  139.0379  155.4176 C.3     1  UNL1        0.0000
     28 C         144.8096  140.1633  155.7771 C.3     1  UNL1        0.0001
     29 C         144.7973  140.7292  157.1661 C.3     1  UNL1        0.0016
     30 C         143.0745  139.4576  158.4790 C.3     1  UNL1        0.0016
     31 C         142.0002  138.4849  158.8658 C.3     1  UNL1        0.0180
     32 C         142.0125  137.9190  157.4768 C.3     1  UNL1        0.0016
@<TRIPOS>UNITY_ATOM_ATTR
13 1
charge -1
@<TRIPOS>BOND
     1    15    16    1
     2    16    17    1
     3    16    18    1
     4    16     1    1
     5     1     2   ar
     6     2    19    1
     7    19    20    2
     8    19    21   am
     9    21    23    1
    10    23    24    1
    11    24    25    1
    12    25    26    1
    13    26    27    1
    14    27    28    1
    15    28    29    1
    16    28    30    1
    17    30    31    1
    18    31    32    1
    19     2     3   ar
    20     3     4   ar
    21     4     5   ar
    22     5     6    1
    23     6     7   ar
    24     7     8   ar
    25     8     9   ar
    26     9    12    1
    27    12    13   ar
    28    12    14   ar
    29     9    10   ar
    30    10    11   ar
    31     5     1   ar
    32    11     6   ar
    33    31    23    1
    34    29    24    1
    35    32    26    1
    36    21    22    1
