@<TRIPOS>MOLECULE
*****
 24 25 0 0 0
SMALL
GASTEIGER

@<TRIPOS>ATOM
      1 C         140.3913  140.7864  169.1040 C.2     1  UNL1        0.3655
      2 N         139.1181  140.0043  168.9730 N.2     1  UNL1       -0.0337
      3 C         139.0566  139.4486  167.5811 C.2     1  UNL1        0.2318
      4 C         138.0354  138.5998  166.8835 C.2     1  UNL1        0.0495
      5 C         138.2493  138.1898  165.4566 C.2     1  UNL1       -0.0041
      6 C         139.4845  138.6285  164.7274 C.2     1  UNL1       -0.0364
      7 C         140.5057  139.4773  165.4249 C.3     1  UNL1        0.0997
      8 C         140.2917  139.8874  166.8518 C.2     1  UNL1        0.2171
      9 N         141.1167  140.7142  167.7931 N.2     1  UNL1       -0.0376
     10 C         140.8574  141.5132  170.3306 C.3     1  UNL1        0.1728
     11 N         140.7940  140.8412  171.6701 N.3     1  UNL1       -0.3120
     12 H         141.1482  141.4757  172.3859 H       1  UNL1        0.1193
     13 H         141.3639  139.9954  171.6534 H       1  UNL1        0.1193
     14 C         140.4396  144.0593  170.0259 C.3     1  UNL1        0.0116
     15 C         141.3868  142.9121  170.2178 C.3     1  UNL1        0.1025
     16 C         142.8635  143.1639  170.2967 C.2     1  UNL1        0.2208
     17 N         143.4168  144.0492  171.3738 N.am    1  UNL1       -0.3288
     18 O         143.7867  142.5303  169.2987 O.2     1  UNL1       -0.2753
     19 H         142.8108  144.4650  172.0288 H       1  UNL1        0.1449
     20 H         144.3860  144.2144  171.4256 H       1  UNL1        0.1449
     21 C         139.6985  138.2184  163.3004 C.3     1  UNL1        0.0156
     22 C         138.5628  139.1018  162.8762 C.3     1  UNL1        0.0041
     23 C         140.8341  137.3351  163.7246 C.3     1  UNL1        0.0041
     24 C         139.9124  137.8083  161.8735 C.3     1  UNL1        0.0041
@<TRIPOS>BOND
     1    15    14    1
     2    15    16    1
     3    16    17   am
     4    16    18    2
     5    15    10    1
     6    10    11    1
     7    10     1    1
     8     1     2    2
     9     2     3    1
    10     3     4    2
    11     4     5    1
    12     5     6    2
    13     6    21    1
    14    21    22    1
    15    21    23    1
    16    21    24    1
    17     6     7    1
    18     7     8    1
    19     8     9    2
    20     9     1    1
    21     8     3    1
    22    17    19    1
    23    17    20    1
    24    11    12    1
    25    11    13    1
@<TRIPOS>MOLECULE
*****
 24 25 0 0 0
SMALL
GASTEIGER

@<TRIPOS>ATOM
      1 C         140.2631  141.8824  167.9639 C.2     1  UNL1        0.3655
      2 N         139.8807  140.4335  168.0292 N.2     1  UNL1       -0.0337
      3 C         139.3850  140.0233  166.6741 C.2     1  UNL1        0.2318
      4 C         138.8742  138.7158  166.1457 C.2     1  UNL1        0.0495
      5 C         138.4395  138.6037  164.7145 C.2     1  UNL1       -0.0041
      6 C         138.5156  139.7992  163.8117 C.2     1  UNL1       -0.0364
      7 C         139.0264  141.1068  164.3402 C.3     1  UNL1        0.0997
      8 C         139.4611  141.2188  165.7714 C.2     1  UNL1        0.2171
      9 N         140.0038  142.3678  166.5685 N.2     1  UNL1       -0.0376
     10 C         140.8091  142.7021  169.0953 C.3     1  UNL1        0.1728
     11 N         140.1717  144.0135  169.4471 N.3     1  UNL1       -0.3120
     12 H         140.6673  144.4321  170.2342 H       1  UNL1        0.1193
     13 H         139.1962  143.8599  169.7024 H       1  UNL1        0.1193
     14 C         143.3758  142.3662  169.3167 C.3     1  UNL1        0.0116
     15 C         141.9923  142.2102  169.8750 C.3     1  UNL1        0.1025
     16 C         141.7921  141.5624  171.2131 C.2     1  UNL1        0.2208
     17 N         142.6461  140.3975  171.6176 N.am    1  UNL1       -0.3288
     18 O         140.7379  142.0794  172.1465 O.2     1  UNL1       -0.2753
     19 H         143.3380  140.0581  171.0050 H       1  UNL1        0.1449
     20 H         142.5147  139.9723  172.4958 H       1  UNL1        0.1449
     21 C         138.0808  139.6871  162.3804 C.3     1  UNL1        0.0156
     22 C         138.5385  138.2589  162.3532 C.3     1  UNL1        0.0041
     23 C         137.6232  141.1153  162.4076 C.3     1  UNL1        0.0041
     24 C         137.6461  139.5750  160.9492 C.3     1  UNL1        0.0041
@<TRIPOS>BOND
     1    15    14    1
     2    15    16    1
     3    16    17   am
     4    16    18    2
     5    15    10    1
     6    10    11    1
     7    10     1    1
     8     1     2    2
     9     2     3    1
    10     3     4    2
    11     4     5    1
    12     5     6    2
    13     6    21    1
    14    21    22    1
    15    21    23    1
    16    21    24    1
    17     6     7    1
    18     7     8    1
    19     8     9    2
    20     9     1    1
    21     8     3    1
    22    17    19    1
    23    17    20    1
    24    11    12    1
    25    11    13    1
@<TRIPOS>MOLECULE
*****
 24 25 0 0 0
SMALL
GASTEIGER

@<TRIPOS>ATOM
      1 C         140.1653  140.0266  168.7681 C.2     1  UNL1        0.3655
      2 N         138.9028  139.5826  168.0907 N.2     1  UNL1       -0.0337
      3 C         139.2484  139.1699  166.6905 C.2     1  UNL1        0.2318
      4 C         138.4097  138.6465  165.5625 C.2     1  UNL1        0.0495
      5 C         139.0471  138.3121  164.2465 C.2     1  UNL1       -0.0041
      6 C         140.5232  138.5012  164.0586 C.2     1  UNL1       -0.0364
      7 C         141.3619  139.0246  165.1866 C.3     1  UNL1        0.0997
      8 C         140.7245  139.3590  166.5026 C.2     1  UNL1        0.2171
      9 N         141.2911  139.8885  167.7866 N.2     1  UNL1       -0.0376
     10 C         140.2815  140.5219  170.1792 C.3     1  UNL1        0.1728
     11 N         139.8359  139.6533  171.3180 N.3     1  UNL1       -0.3120
     12 H         139.9859  140.1446  172.1992 H       1  UNL1        0.1193
     13 H         140.3745  138.7870  171.3157 H       1  UNL1        0.1193
     14 C         142.3001  142.0470  170.7702 C.3     1  UNL1        0.0116
     15 C         140.8432  141.8858  170.4514 C.3     1  UNL1        0.1025
     16 C         139.9481  143.0886  170.4050 C.2     1  UNL1        0.2208
     17 N         138.9383  143.3145  171.4910 N.am    1  UNL1       -0.3288
     18 O         140.0627  144.0655  169.2725 O.2     1  UNL1       -0.2753
     19 H         138.8631  142.6733  172.2343 H       1  UNL1        0.1449
     20 H         138.3509  144.1039  171.4605 H       1  UNL1        0.1449
     21 C         141.1606  138.1668  162.7425 C.3     1  UNL1        0.0156
     22 C         142.5174  138.3799  163.3455 C.3     1  UNL1        0.0041
     23 C         139.8038  137.9537  162.1396 C.3     1  UNL1        0.0041
     24 C         141.7980  137.8324  161.4265 C.3     1  UNL1        0.0041
@<TRIPOS>BOND
     1    15    14    1
     2    15    16    1
     3    16    17   am
     4    16    18    2
     5    15    10    1
     6    10    11    1
     7    10     1    1
     8     1     2    2
     9     2     3    1
    10     3     4    2
    11     4     5    1
    12     5     6    2
    13     6    21    1
    14    21    22    1
    15    21    23    1
    16    21    24    1
    17     6     7    1
    18     7     8    1
    19     8     9    2
    20     9     1    1
    21     8     3    1
    22    17    19    1
    23    17    20    1
    24    11    12    1
    25    11    13    1
@<TRIPOS>MOLECULE
*****
 24 25 0 0 0
SMALL
GASTEIGER

@<TRIPOS>ATOM
      1 C         139.9426  140.2857  168.3608 C.2     1  UNL1        0.3655
      2 N         140.7171  141.1606  167.4201 N.2     1  UNL1       -0.0337
      3 C         140.2080  140.9126  166.0311 C.2     1  UNL1        0.2318
      4 C         140.5954  141.4901  164.7021 C.2     1  UNL1        0.0495
      5 C         139.8937  141.0396  163.4553 C.2     1  UNL1       -0.0041
      6 C         138.8046  140.0115  163.5375 C.2     1  UNL1       -0.0364
      7 C         138.4171  139.4339  164.8665 C.3     1  UNL1        0.0997
      8 C         139.1188  139.8845  166.1133 C.2     1  UNL1        0.2171
      9 N         138.9549  139.4971  167.5531 N.2     1  UNL1       -0.0376
     10 C         140.1241  140.2124  169.8480 C.3     1  UNL1        0.1728
     11 N         139.0006  139.7317  170.7178 N.3     1  UNL1       -0.3120
     12 H         139.2962  139.7464  171.6940 H       1  UNL1        0.1193
     13 H         138.7492  138.7793  170.4530 H       1  UNL1        0.1193
     14 C         142.6510  139.7738  170.2630 C.3     1  UNL1        0.0116
     15 C         141.4290  140.6198  170.4653 C.3     1  UNL1        0.1025
     16 C         141.5120  141.8734  171.2851 C.2     1  UNL1        0.2208
     17 N         142.7113  142.7667  171.1700 N.am    1  UNL1       -0.3288
     18 O         140.3955  142.2334  172.2199 O.2     1  UNL1       -0.2753
     19 H         143.4441  142.5304  170.5565 H       1  UNL1        0.1449
     20 H         142.7658  143.5894  171.7080 H       1  UNL1        0.1449
     21 C         138.1029  139.5609  162.2907 C.3     1  UNL1        0.0156
     22 C         138.5568  138.1538  162.5436 C.3     1  UNL1        0.0041
     23 C         137.6489  140.9680  162.0377 C.3     1  UNL1        0.0041
     24 C         137.4012  139.1104  161.0438 C.3     1  UNL1        0.0041
@<TRIPOS>BOND
     1    15    14    1
     2    15    16    1
     3    16    17   am
     4    16    18    2
     5    15    10    1
     6    10    11    1
     7    10     1    1
     8     1     2    2
     9     2     3    1
    10     3     4    2
    11     4     5    1
    12     5     6    2
    13     6    21    1
    14    21    22    1
    15    21    23    1
    16    21    24    1
    17     6     7    1
    18     7     8    1
    19     8     9    2
    20     9     1    1
    21     8     3    1
    22    17    19    1
    23    17    20    1
    24    11    12    1
    25    11    13    1
@<TRIPOS>MOLECULE
*****
 24 25 0 0 0
SMALL
GASTEIGER

@<TRIPOS>ATOM
      1 C         141.3375  141.3504  167.6928 C.2     1  UNL1        0.3655
      2 N         140.1776  140.4281  167.9255 N.2     1  UNL1       -0.0337
      3 C         139.8016  139.8150  166.6092 C.2     1  UNL1        0.2318
      4 C         138.7345  138.8321  166.2280 C.2     1  UNL1        0.0495
      5 C         138.5949  138.3927  164.8007 C.2     1  UNL1       -0.0041
      6 C         139.5223  138.9360  163.7545 C.2     1  UNL1       -0.0364
      7 C         140.5894  139.9188  164.1356 C.3     1  UNL1        0.0997
      8 C         140.7290  140.3583  165.5629 C.2     1  UNL1        0.2171
      9 N         141.6783  141.3073  166.2327 N.2     1  UNL1       -0.0376
     10 C         142.0342  142.1716  168.7370 C.3     1  UNL1        0.1728
     11 N         143.4832  142.5222  168.5717 N.3     1  UNL1       -0.3120
     12 H         143.7910  143.0799  169.3684 H       1  UNL1        0.1193
     13 H         143.6075  143.0585  167.7130 H       1  UNL1        0.1193
     14 C         140.4671  143.8999  169.8803 C.3     1  UNL1        0.0116
     15 C         141.2819  142.6422  169.9463 C.3     1  UNL1        0.1025
     16 C         141.3442  141.8550  171.2217 C.2     1  UNL1        0.2208
     17 N         142.3517  140.7544  171.3752 N.am    1  UNL1       -0.3288
     18 O         140.3991  142.1686  172.3435 O.2     1  UNL1       -0.2753
     19 H         142.9720  140.5487  170.6390 H       1  UNL1        0.1449
     20 H         142.3927  140.2378  172.2123 H       1  UNL1        0.1449
     21 C         139.3827  138.4965  162.3271 C.3     1  UNL1        0.0156
     22 C         140.7241  137.8293  162.4012 C.3     1  UNL1        0.0041
     23 C         138.0413  139.1636  162.2530 C.3     1  UNL1        0.0041
     24 C         139.2430  138.0570  160.8998 C.3     1  UNL1        0.0041
@<TRIPOS>BOND
     1    15    14    1
     2    15    16    1
     3    16    17   am
     4    16    18    2
     5    15    10    1
     6    10    11    1
     7    10     1    1
     8     1     2    2
     9     2     3    1
    10     3     4    2
    11     4     5    1
    12     5     6    2
    13     6    21    1
    14    21    22    1
    15    21    23    1
    16    21    24    1
    17     6     7    1
    18     7     8    1
    19     8     9    2
    20     9     1    1
    21     8     3    1
    22    17    19    1
    23    17    20    1
    24    11    12    1
    25    11    13    1
@<TRIPOS>MOLECULE
*****
 24 25 0 0 0
SMALL
GASTEIGER

@<TRIPOS>ATOM
      1 C         139.9481  140.3144  168.6973 C.2     1  UNL1        0.3655
      2 N         139.0591  139.4021  167.9052 N.2     1  UNL1       -0.0337
      3 C         138.8855  139.9956  166.5386 C.2     1  UNL1        0.2318
      4 C         138.1167  139.5365  165.3353 C.2     1  UNL1        0.0495
      5 C         138.1295  140.3565  164.0794 C.2     1  UNL1       -0.0041
      6 C         138.9113  141.6356  164.0268 C.2     1  UNL1       -0.0364
      7 C         139.6802  142.0947  165.2301 C.3     1  UNL1        0.0997
      8 C         139.6673  141.2747  166.4860 C.2     1  UNL1        0.2171
      9 N         140.3240  141.4717  167.8201 N.2     1  UNL1       -0.0376
     10 C         140.3846  140.1060  170.1172 C.3     1  UNL1        0.1728
     11 N         139.4531  139.4630  171.1015 N.3     1  UNL1       -0.3120
     12 H         139.9099  139.4010  172.0113 H       1  UNL1        0.1193
     13 H         139.2106  138.5265  170.7783 H       1  UNL1        0.1193
     14 C         141.9482  141.8929  171.1718 C.3     1  UNL1        0.0116
     15 C         141.7526  140.5406  170.5528 C.3     1  UNL1        0.1025
     16 C         142.9249  139.6230  170.3693 C.2     1  UNL1        0.2208
     17 N         143.9739  139.5237  171.4369 N.am    1  UNL1       -0.3288
     18 O         143.0483  138.8047  169.1183 O.2     1  UNL1       -0.2753
     19 H         143.8929  140.0608  172.2580 H       1  UNL1        0.1449
     20 H         144.7433  138.9214  171.3165 H       1  UNL1        0.1449
     21 C         138.9242  142.4556  162.7708 C.3     1  UNL1        0.0156
     22 C         137.7250  143.2157  163.2547 C.3     1  UNL1        0.0041
     23 C         140.1233  141.6956  162.2869 C.3     1  UNL1        0.0041
     24 C         138.9370  143.2756  161.5148 C.3     1  UNL1        0.0041
@<TRIPOS>BOND
     1    15    14    1
     2    15    16    1
     3    16    17   am
     4    16    18    2
     5    15    10    1
     6    10    11    1
     7    10     1    1
     8     1     2    2
     9     2     3    1
    10     3     4    2
    11     4     5    1
    12     5     6    2
    13     6    21    1
    14    21    22    1
    15    21    23    1
    16    21    24    1
    17     6     7    1
    18     7     8    1
    19     8     9    2
    20     9     1    1
    21     8     3    1
    22    17    19    1
    23    17    20    1
    24    11    12    1
    25    11    13    1
@<TRIPOS>MOLECULE
*****
 24 25 0 0 0
SMALL
GASTEIGER

@<TRIPOS>ATOM
      1 C         139.0248  142.1699  163.3129 C.2     1  UNL1        0.3655
      2 N         138.2503  140.9305  163.6506 N.2     1  UNL1       -0.0337
      3 C         138.5997  140.5337  165.0544 C.2     1  UNL1        0.2318
      4 C         138.1439  139.3956  165.9186 C.2     1  UNL1        0.0495
      5 C         138.6785  139.2516  167.3126 C.2     1  UNL1       -0.0041
      6 C         139.6690  140.2457  167.8424 C.2     1  UNL1       -0.0364
      7 C         140.1248  141.3838  166.9782 C.3     1  UNL1        0.0997
      8 C         139.5901  141.5278  165.5842 C.2     1  UNL1        0.2171
      9 N         139.8529  142.5390  164.5079 N.2     1  UNL1       -0.0376
     10 C         138.9793  142.9102  162.0091 C.3     1  UNL1        0.1728
     11 N         137.6626  143.3542  161.4443 N.3     1  UNL1       -0.3120
     12 H         137.8178  143.8385  160.5602 H       1  UNL1        0.1193
     13 H         137.2060  143.9859  162.1024 H       1  UNL1        0.1193
     14 C         141.1265  142.0815  160.8038 C.3     1  UNL1        0.0116
     15 C         140.2505  143.2063  161.2700 C.3     1  UNL1        0.1025
     16 C         140.6457  144.6274  160.9970 C.2     1  UNL1        0.2208
     17 N         142.0427  145.0871  161.2919 N.am    1  UNL1       -0.3288
     18 O         139.6439  145.5887  160.4293 O.2     1  UNL1       -0.2753
     19 H         142.7002  144.4562  161.6645 H       1  UNL1        0.1449
     20 H         142.3021  146.0198  161.1127 H       1  UNL1        0.1449
     21 C         140.2037  140.1016  169.2365 C.3     1  UNL1        0.0156
     22 C         141.5748  139.8463  168.6844 C.3     1  UNL1        0.0041
     23 C         138.8326  140.3569  169.7887 C.3     1  UNL1        0.0041
     24 C         140.7383  139.9576  170.6306 C.3     1  UNL1        0.0041
@<TRIPOS>BOND
     1    15    14    1
     2    15    16    1
     3    16    17   am
     4    16    18    2
     5    15    10    1
     6    10    11    1
     7    10     1    1
     8     1     2    2
     9     2     3    1
    10     3     4    2
    11     4     5    1
    12     5     6    2
    13     6    21    1
    14    21    22    1
    15    21    23    1
    16    21    24    1
    17     6     7    1
    18     7     8    1
    19     8     9    2
    20     9     1    1
    21     8     3    1
    22    17    19    1
    23    17    20    1
    24    11    12    1
    25    11    13    1
@<TRIPOS>MOLECULE
*****
 24 25 0 0 0
SMALL
GASTEIGER

@<TRIPOS>ATOM
      1 C         141.2506  140.9545  167.4020 C.2     1  UNL1        0.3655
      2 N         141.0257  140.2350  166.1052 N.2     1  UNL1       -0.0337
      3 C         140.7417  141.2614  165.0488 C.2     1  UNL1        0.2318
      4 C         140.4445  141.1381  163.5838 C.2     1  UNL1        0.0495
      5 C         140.1967  142.3686  162.7627 C.2     1  UNL1       -0.0041
      6 C         140.2461  143.7225  163.4066 C.2     1  UNL1       -0.0364
      7 C         140.5433  143.8458  164.8716 C.3     1  UNL1        0.0997
      8 C         140.7911  142.6152  165.6928 C.2     1  UNL1        0.2171
      9 N         141.1056  142.4256  167.1471 N.2     1  UNL1       -0.0376
     10 C         141.5652  140.3152  168.7220 C.3     1  UNL1        0.1728
     11 N         142.7504  139.4050  168.8509 N.3     1  UNL1       -0.3120
     12 H         142.8133  139.0623  169.8096 H       1  UNL1        0.1193
     13 H         143.6003  139.9181  168.6168 H       1  UNL1        0.1193
     14 C         139.2090  140.4054  169.8128 C.3     1  UNL1        0.0116
     15 C         140.6947  140.5862  169.9131 C.3     1  UNL1        0.1025
     16 C         141.3098  141.0380  171.2045 C.2     1  UNL1        0.2208
     17 N         142.6180  140.4587  171.6552 N.am    1  UNL1       -0.3288
     18 O         140.6168  142.0690  172.0451 O.2     1  UNL1       -0.2753
     19 H         143.0728  139.7820  171.1034 H       1  UNL1        0.1449
     20 H         143.0217  140.7552  172.5027 H       1  UNL1        0.1449
     21 C         139.9982  144.9531  162.5854 C.3     1  UNL1        0.0156
     22 C         138.5314  144.8568  162.8837 C.3     1  UNL1        0.0041
     23 C         141.4651  145.0493  162.2870 C.3     1  UNL1        0.0041
     24 C         139.7505  146.1836  161.7642 C.3     1  UNL1        0.0041
@<TRIPOS>BOND
     1    15    14    1
     2    15    16    1
     3    16    17   am
     4    16    18    2
     5    15    10    1
     6    10    11    1
     7    10     1    1
     8     1     2    2
     9     2     3    1
    10     3     4    2
    11     4     5    1
    12     5     6    2
    13     6    21    1
    14    21    22    1
    15    21    23    1
    16    21    24    1
    17     6     7    1
    18     7     8    1
    19     8     9    2
    20     9     1    1
    21     8     3    1
    22    17    19    1
    23    17    20    1
    24    11    12    1
    25    11    13    1
@<TRIPOS>MOLECULE
*****
 24 25 0 0 0
SMALL
GASTEIGER

@<TRIPOS>ATOM
      1 C         142.1606  139.5035  168.1056 C.2     1  UNL1        0.3655
      2 N         143.2353  139.1411  167.1240 N.2     1  UNL1       -0.0337
      3 C         142.5858  138.8991  165.7937 C.2     1  UNL1        0.2318
      4 C         143.1477  138.5125  164.4579 C.2     1  UNL1        0.0495
      5 C         142.2335  138.3387  163.2815 C.2     1  UNL1       -0.0041
      6 C         140.7573  138.5516  163.4410 C.2     1  UNL1       -0.0364
      7 C         140.1953  138.9382  164.7769 C.3     1  UNL1        0.0997
      8 C         141.1095  139.1120  165.9533 C.2     1  UNL1        0.2171
      9 N         140.8468  139.4855  167.3821 N.2     1  UNL1       -0.0376
     10 C         142.3640  139.8270  169.5561 C.3     1  UNL1        0.1728
     11 N         143.1289  138.8825  170.4352 N.3     1  UNL1       -0.3120
     12 H         143.1697  139.2576  171.3828 H       1  UNL1        0.1193
     13 H         144.0757  138.7717  170.0723 H       1  UNL1        0.1193
     14 C         142.2960  142.4230  169.6346 C.3     1  UNL1        0.0116
     15 C         141.8024  141.0951  170.1276 C.3     1  UNL1        0.1025
     16 C         140.7473  141.0353  171.1921 C.2     1  UNL1        0.2208
     17 N         139.9357  139.7871  171.3744 N.am    1  UNL1       -0.3288
     18 O         140.5039  142.2237  172.0744 O.2     1  UNL1       -0.2753
     19 H         140.0954  139.0071  170.7953 H       1  UNL1        0.1449
     20 H         139.2432  139.7478  172.0730 H       1  UNL1        0.1449
     21 C         139.8430  138.3778  162.2645 C.3     1  UNL1        0.0156
     22 C         138.6557  138.5947  163.1551 C.3     1  UNL1        0.0041
     23 C         141.0303  138.1609  161.3739 C.3     1  UNL1        0.0041
     24 C         138.9289  138.2040  161.0881 C.3     1  UNL1        0.0041
@<TRIPOS>BOND
     1    15    14    1
     2    15    16    1
     3    16    17   am
     4    16    18    2
     5    15    10    1
     6    10    11    1
     7    10     1    1
     8     1     2    2
     9     2     3    1
    10     3     4    2
    11     4     5    1
    12     5     6    2
    13     6    21    1
    14    21    22    1
    15    21    23    1
    16    21    24    1
    17     6     7    1
    18     7     8    1
    19     8     9    2
    20     9     1    1
    21     8     3    1
    22    17    19    1
    23    17    20    1
    24    11    12    1
    25    11    13    1
