@<TRIPOS>MOLECULE
*****
 35 38 0 0 0
SMALL
GASTEIGER

@<TRIPOS>ATOM
      1 C         138.3487  141.3911  164.1636 C.ar    1  UNL1        0.0495
      2 C         138.3848  141.2355  162.6721 C.ar    1  UNL1        0.0455
      3 C         139.0742  142.2656  161.8271 C.ar    1  UNL1        0.1623
      4 F         139.1103  142.1100  160.3357 F       1  UNL1       -0.2026
      5 C         139.7274  143.4510  162.4736 C.ar    1  UNL1        0.1798
      6 C         139.6913  143.6065  163.9651 C.ar    1  UNL1        0.1623
      7 F         140.3445  144.7920  164.6116 F       1  UNL1       -0.2026
      8 C         139.0020  142.5766  164.8101 C.ar    1  UNL1        0.0455
      9 S         140.4167  144.4809  161.6286 S.O2    1  UNL1        0.0791
     10 O         139.1884  145.3406  161.6744 O.2     1  UNL1       -0.1498
     11 O         141.6450  143.6212  161.5828 O.2     1  UNL1       -0.1498
     12 N         141.1060  145.5109  160.7836 N.pl3   1  UNL1       -0.1983
     13 H         141.5154  146.3004  161.2060 H       1  UNL1        0.1753
     14 C         141.1715  145.3380  159.2950 C.ar    1  UNL1        0.1542
     15 C         140.1733  144.6064  158.4476 C.ar    1  UNL1        0.0725
     16 S         140.6316  144.6826  157.0213 S.2     1  UNL1       -0.0625
     17 C         141.9132  145.4614  156.9873 C.ar    1  UNL1        0.1360
     18 N         142.2469  145.8665  158.3925 N.ar    1  UNL1       -0.2203
     19 N         137.6594  140.3612  165.0086 N.pl3   1  UNL1       -0.3289
     20 H         136.6933  140.2041  164.9028 H       1  UNL1        0.1471
     21 C         138.4420  139.5706  166.0148 C.3     1  UNL1        0.1163
     22 C         141.0229  139.5372  166.3116 C.ar    1  UNL1       -0.0063
     23 C         142.3655  138.9773  165.9455 C.ar    1  UNL1       -0.0030
     24 C         142.4698  137.8911  164.9165 C.ar    1  UNL1        0.0020
     25 C         141.2315  137.3646  164.2535 C.ar    1  UNL1        0.0293
     26 C         139.8890  137.9244  164.6196 C.ar    1  UNL1        0.1375
     27 F         138.6507  137.3979  163.9566 F       1  UNL1       -0.2045
     28 C         139.7847  139.0107  165.6487 C.ar    1  UNL1        0.0222
     29 C         140.9186  140.6235  167.3408 C.3     1  UNL1        0.0989
     30 C         142.7296  142.3488  168.0434 C.3     1  UNL1        0.0161
     31 C         142.8189  141.4009  169.2025 C.3     1  UNL1        0.0471
     32 C         143.8951  142.2490  169.8130 C.3     1  UNL1        0.0161
     33 C         142.9082  140.4530  170.3617 C.3     1  UNL1        0.0320
     34 C         141.8320  139.6050  169.7512 C.3     1  UNL1        0.0736
     35 N         141.7427  140.5529  168.5921 N.3     1  UNL1       -0.2714
@<TRIPOS>BOND
     1    30    31    1
     2    31    32    1
     3    31    33    1
     4    33    34    1
     5    34    35    1
     6    35    29    1
     7    29    22    1
     8    22    23   ar
     9    23    24   ar
    10    24    25   ar
    11    25    26   ar
    12    26    27    1
    13    26    28   ar
    14    28    21    1
    15    21    19    1
    16    19     1    1
    17     1     2   ar
    18     2     3   ar
    19     3     4    1
    20     3     5   ar
    21     5     9    1
    22     9    10    2
    23     9    11    2
    24     9    12    1
    25    12    14    1
    26    14    15   ar
    27    15    16   ar
    28    16    17   ar
    29    17    18   ar
    30     5     6   ar
    31     6     7    1
    32     6     8   ar
    33    35    31    1
    34    28    22   ar
    35     8     1   ar
    36    18    14   ar
    37    19    20    1
    38    12    13    1
@<TRIPOS>MOLECULE
*****
 35 38 0 0 0
SMALL
GASTEIGER

@<TRIPOS>ATOM
      1 C         138.3639  141.4684  164.1582 C.ar    1  UNL1        0.0495
      2 C         139.3587  142.4247  164.7462 C.ar    1  UNL1        0.0455
      3 C         139.9930  143.4732  163.8810 C.ar    1  UNL1        0.1623
      4 F         140.9879  144.4295  164.4690 F       1  UNL1       -0.2026
      5 C         139.6325  143.5653  162.4280 C.ar    1  UNL1        0.1798
      6 C         138.6376  142.6090  161.8400 C.ar    1  UNL1        0.1623
      7 F         138.2771  142.7011  160.3869 F       1  UNL1       -0.2026
      8 C         138.0034  141.5605  162.7051 C.ar    1  UNL1        0.0455
      9 S         140.2668  144.6137  161.5629 S.O2    1  UNL1        0.0791
     10 O         139.0643  145.4917  161.7453 O.2     1  UNL1       -0.1498
     11 O         141.4692  143.7358  161.3805 O.2     1  UNL1       -0.1498
     12 N         140.9010  145.6623  160.6978 N.pl3   1  UNL1       -0.1983
     13 H         141.1978  146.5135  161.0935 H       1  UNL1        0.1753
     14 C         141.0832  145.4138  159.2297 C.ar    1  UNL1        0.1542
     15 C         140.1271  144.6836  158.3338 C.ar    1  UNL1        0.0725
     16 S         140.7064  144.6704  156.9502 S.2     1  UNL1       -0.0625
     17 C         142.0206  145.3924  156.9911 C.ar    1  UNL1        0.1360
     18 N         142.2535  145.8519  158.3999 N.ar    1  UNL1       -0.2203
     19 N         137.7296  140.4200  165.0233 N.pl3   1  UNL1       -0.3289
     20 H         136.7981  140.5269  165.3234 H       1  UNL1        0.1471
     21 C         138.5146  139.2086  165.4312 C.3     1  UNL1        0.1163
     22 C         141.0718  138.8861  165.1044 C.ar    1  UNL1       -0.0063
     23 C         142.2261  138.4231  164.2659 C.ar    1  UNL1       -0.0030
     24 C         141.9774  137.8194  162.9155 C.ar    1  UNL1        0.0020
     25 C         140.5745  137.6787  162.4036 C.ar    1  UNL1        0.0293
     26 C         139.4202  138.1418  163.2422 C.ar    1  UNL1        0.1375
     27 F         138.0173  138.0012  162.7303 F       1  UNL1       -0.2045
     28 C         139.6689  138.7455  164.5926 C.ar    1  UNL1        0.0222
     29 C         141.3205  139.4899  166.4549 C.3     1  UNL1        0.0989
     30 C         142.0709  140.5704  168.6953 C.3     1  UNL1        0.0161
     31 C         142.7184  141.5165  167.7280 C.3     1  UNL1        0.0471
     32 C         143.2690  142.3117  168.8745 C.3     1  UNL1        0.0161
     33 C         143.3659  142.4625  166.7606 C.3     1  UNL1        0.0320
     34 C         142.8152  141.6672  165.6142 C.3     1  UNL1        0.0736
     35 N         142.1677  140.7212  166.5816 N.3     1  UNL1       -0.2714
@<TRIPOS>BOND
     1    30    31    1
     2    31    32    1
     3    31    33    1
     4    33    34    1
     5    34    35    1
     6    35    29    1
     7    29    22    1
     8    22    23   ar
     9    23    24   ar
    10    24    25   ar
    11    25    26   ar
    12    26    27    1
    13    26    28   ar
    14    28    21    1
    15    21    19    1
    16    19     1    1
    17     1     2   ar
    18     2     3   ar
    19     3     4    1
    20     3     5   ar
    21     5     9    1
    22     9    10    2
    23     9    11    2
    24     9    12    1
    25    12    14    1
    26    14    15   ar
    27    15    16   ar
    28    16    17   ar
    29    17    18   ar
    30     5     6   ar
    31     6     7    1
    32     6     8   ar
    33    35    31    1
    34    28    22   ar
    35     8     1   ar
    36    18    14   ar
    37    19    20    1
    38    12    13    1
@<TRIPOS>MOLECULE
*****
 35 38 0 0 0
SMALL
GASTEIGER

@<TRIPOS>ATOM
      1 C         143.1776  140.1717  163.5033 C.ar    1  UNL1        0.0495
      2 C         142.1649  140.1652  162.3967 C.ar    1  UNL1        0.0455
      3 C         141.8072  141.4445  161.6999 C.ar    1  UNL1        0.1623
      4 F         140.7946  141.4380  160.5933 F       1  UNL1       -0.2026
      5 C         142.4622  142.7302  162.1096 C.ar    1  UNL1        0.1798
      6 C         143.4749  142.7367  163.2161 C.ar    1  UNL1        0.1623
      7 F         144.1299  144.0225  163.6258 F       1  UNL1       -0.2026
      8 C         143.8326  141.4576  163.9130 C.ar    1  UNL1        0.0455
      9 S         142.1045  144.0094  161.4127 S.O2    1  UNL1        0.0791
     10 O         140.9961  144.2360  162.3976 O.2     1  UNL1       -0.1498
     11 O         143.2129  143.7828  160.4278 O.2     1  UNL1       -0.1498
     12 N         141.7468  145.2887  160.7158 N.pl3   1  UNL1       -0.1983
     13 H         141.7623  146.1397  161.2105 H       1  UNL1        0.1753
     14 C         141.3653  145.2712  159.2652 C.ar    1  UNL1        0.1542
     15 C         140.1876  144.5566  158.6718 C.ar    1  UNL1        0.0725
     16 S         140.1890  144.8091  157.1932 S.2     1  UNL1       -0.0625
     17 C         141.3677  145.6797  156.8728 C.ar    1  UNL1        0.1360
     18 N         142.0948  145.9654  158.1533 N.ar    1  UNL1       -0.2203
     19 N         143.5353  138.8926  164.2001 N.pl3   1  UNL1       -0.3289
     20 H         144.2270  138.3027  163.8220 H       1  UNL1        0.1471
     21 C         142.8392  138.5120  165.4732 C.3     1  UNL1        0.1163
     22 C         140.6753  139.5608  166.4567 C.ar    1  UNL1       -0.0063
     23 C         139.1784  139.6142  166.5379 C.ar    1  UNL1       -0.0030
     24 C         138.3487  138.6723  165.7169 C.ar    1  UNL1        0.0020
     25 C         139.0158  137.6768  164.8146 C.ar    1  UNL1        0.0293
     26 C         140.5126  137.6234  164.7333 C.ar    1  UNL1        0.1375
     27 F         141.1797  136.6279  163.8311 F       1  UNL1       -0.2045
     28 C         141.3423  138.5654  165.5544 C.ar    1  UNL1        0.0222
     29 C         141.5051  140.5028  167.2777 C.3     1  UNL1        0.0989
     30 C         140.6431  142.7796  168.1850 C.3     1  UNL1        0.0161
     31 C         140.6249  141.9781  169.4528 C.3     1  UNL1        0.0471
     32 C         140.1169  143.1744  170.2017 C.3     1  UNL1        0.0161
     33 C         140.6068  141.1766  170.7205 C.3     1  UNL1        0.0320
     34 C         141.1148  139.9804  169.9716 C.3     1  UNL1        0.0736
     35 N         141.1330  140.7819  168.7038 N.3     1  UNL1       -0.2714
@<TRIPOS>BOND
     1    30    31    1
     2    31    32    1
     3    31    33    1
     4    33    34    1
     5    34    35    1
     6    35    29    1
     7    29    22    1
     8    22    23   ar
     9    23    24   ar
    10    24    25   ar
    11    25    26   ar
    12    26    27    1
    13    26    28   ar
    14    28    21    1
    15    21    19    1
    16    19     1    1
    17     1     2   ar
    18     2     3   ar
    19     3     4    1
    20     3     5   ar
    21     5     9    1
    22     9    10    2
    23     9    11    2
    24     9    12    1
    25    12    14    1
    26    14    15   ar
    27    15    16   ar
    28    16    17   ar
    29    17    18   ar
    30     5     6   ar
    31     6     7    1
    32     6     8   ar
    33    35    31    1
    34    28    22   ar
    35     8     1   ar
    36    18    14   ar
    37    19    20    1
    38    12    13    1
@<TRIPOS>MOLECULE
*****
 35 38 0 0 0
SMALL
GASTEIGER

@<TRIPOS>ATOM
      1 C         141.0978  142.7388  165.6083 C.ar    1  UNL1        0.0495
      2 C         139.6868  143.1909  165.3742 C.ar    1  UNL1        0.0455
      3 C         139.3276  143.8995  164.1018 C.ar    1  UNL1        0.1623
      4 F         137.9167  144.3517  163.8678 F       1  UNL1       -0.2026
      5 C         140.3794  144.1560  163.0636 C.ar    1  UNL1        0.1798
      6 C         141.7903  143.7039  163.2977 C.ar    1  UNL1        0.1623
      7 F         142.8421  143.9604  162.2594 F       1  UNL1       -0.2026
      8 C         142.1495  142.9953  164.5700 C.ar    1  UNL1        0.0455
      9 S         140.0202  144.8646  161.7913 S.O2    1  UNL1        0.0791
     10 O         140.5073  146.1580  162.3741 O.2     1  UNL1       -0.1498
     11 O         139.5330  143.5712  161.2085 O.2     1  UNL1       -0.1498
     12 N         139.6610  145.5733  160.5189 N.pl3   1  UNL1       -0.1983
     13 H         138.8679  146.1558  160.4869 H       1  UNL1        0.1753
     14 C         140.5101  145.3944  159.2954 C.ar    1  UNL1        0.1542
     15 C         140.0773  145.6331  157.8792 C.ar    1  UNL1        0.0725
     16 S         141.2408  145.3317  156.9818 S.2     1  UNL1       -0.0625
     17 C         142.3928  144.9067  157.8434 C.ar    1  UNL1        0.1360
     18 N         141.9413  144.9455  159.2733 N.ar    1  UNL1       -0.2203
     19 N         141.4570  142.0302  166.8806 N.pl3   1  UNL1       -0.3289
     20 H         141.4714  142.5243  167.7320 H       1  UNL1        0.1471
     21 C         141.7941  140.5688  166.8557 C.3     1  UNL1        0.1163
     22 C         141.2714  138.6670  165.1645 C.ar    1  UNL1       -0.0063
     23 C         140.3050  137.6844  164.5726 C.ar    1  UNL1       -0.0030
     24 C         138.8949  137.6207  165.0800 C.ar    1  UNL1        0.0020
     25 C         138.4511  138.5398  166.1793 C.ar    1  UNL1        0.0293
     26 C         139.4175  139.5225  166.7712 C.ar    1  UNL1        0.1375
     27 F         138.9738  140.4415  167.8705 F       1  UNL1       -0.2045
     28 C         140.8276  139.5861  166.2638 C.ar    1  UNL1        0.0222
     29 C         142.6816  138.7307  164.6571 C.3     1  UNL1        0.0989
     30 C         144.7483  140.2830  164.3947 C.3     1  UNL1        0.0161
     31 C         144.1046  140.4890  163.0556 C.3     1  UNL1        0.0471
     32 C         145.2049  141.4337  162.6721 C.3     1  UNL1        0.0161
     33 C         143.4609  140.6951  161.7165 C.3     1  UNL1        0.0320
     34 C         142.3607  139.7504  162.1000 C.3     1  UNL1        0.0736
     35 N         143.0044  139.5444  163.4391 N.3     1  UNL1       -0.2714
@<TRIPOS>BOND
     1    30    31    1
     2    31    32    1
     3    31    33    1
     4    33    34    1
     5    34    35    1
     6    35    29    1
     7    29    22    1
     8    22    23   ar
     9    23    24   ar
    10    24    25   ar
    11    25    26   ar
    12    26    27    1
    13    26    28   ar
    14    28    21    1
    15    21    19    1
    16    19     1    1
    17     1     2   ar
    18     2     3   ar
    19     3     4    1
    20     3     5   ar
    21     5     9    1
    22     9    10    2
    23     9    11    2
    24     9    12    1
    25    12    14    1
    26    14    15   ar
    27    15    16   ar
    28    16    17   ar
    29    17    18   ar
    30     5     6   ar
    31     6     7    1
    32     6     8   ar
    33    35    31    1
    34    28    22   ar
    35     8     1   ar
    36    18    14   ar
    37    19    20    1
    38    12    13    1
@<TRIPOS>MOLECULE
*****
 35 38 0 0 0
SMALL
GASTEIGER

@<TRIPOS>ATOM
      1 C         139.1198  140.8672  164.3622 C.ar    1  UNL1        0.0495
      2 C         138.1295  141.9937  164.3443 C.ar    1  UNL1        0.0455
      3 C         138.3405  143.1635  163.4293 C.ar    1  UNL1        0.1623
      4 F         137.3502  144.2899  163.4114 F       1  UNL1       -0.2026
      5 C         139.5418  143.2067  162.5321 C.ar    1  UNL1        0.1798
      6 C         140.5321  142.0802  162.5499 C.ar    1  UNL1        0.1623
      7 F         141.7334  142.1234  161.6528 F       1  UNL1       -0.2026
      8 C         140.3211  140.9105  163.4649 C.ar    1  UNL1        0.0455
      9 S         139.7528  144.3764  161.6171 S.O2    1  UNL1        0.0791
     10 O         138.9170  143.7060  160.5674 O.2     1  UNL1       -0.1498
     11 O         140.5887  145.0467  162.6668 O.2     1  UNL1       -0.1498
     12 N         139.9638  145.5461  160.7020 N.pl3   1  UNL1       -0.1983
     13 H         139.5893  146.4265  160.9342 H       1  UNL1        0.1753
     14 C         140.7454  145.3744  159.4333 C.ar    1  UNL1        0.1542
     15 C         140.3500  145.8825  158.0785 C.ar    1  UNL1        0.0725
     16 S         141.4198  145.4865  157.1045 S.2     1  UNL1       -0.0625
     17 C         142.4764  144.7337  157.8574 C.ar    1  UNL1        0.1360
     18 N         142.0597  144.6643  159.2967 N.ar    1  UNL1       -0.2203
     19 N         138.9088  139.6975  165.2771 N.pl3   1  UNL1       -0.3289
     20 H         138.0138  139.2971  165.3658 H       1  UNL1        0.1471
     21 C         140.0614  139.1380  166.0571 C.3     1  UNL1        0.1163
     22 C         142.0010  140.4059  167.2321 C.ar    1  UNL1       -0.0063
     23 C         142.5349  141.1505  168.4197 C.ar    1  UNL1       -0.0030
     24 C         141.6630  141.3719  169.6200 C.ar    1  UNL1        0.0020
     25 C         140.2573  140.8487  169.6327 C.ar    1  UNL1        0.0293
     26 C         139.7234  140.1041  168.4451 C.ar    1  UNL1        0.1375
     27 F         138.3177  139.5809  168.4578 F       1  UNL1       -0.2045
     28 C         140.5952  139.8826  167.2448 C.ar    1  UNL1        0.0222
     29 C         142.8729  140.1844  166.0317 C.3     1  UNL1        0.0989
     30 C         144.8378  140.0966  164.3342 C.3     1  UNL1        0.0161
     31 C         144.5058  141.5577  164.2627 C.3     1  UNL1        0.0471
     32 C         145.5999  141.7568  163.2560 C.3     1  UNL1        0.0161
     33 C         144.1738  143.0187  164.1911 C.3     1  UNL1        0.0320
     34 C         143.0798  142.8194  165.1977 C.3     1  UNL1        0.0736
     35 N         143.4117  141.3584  165.2693 N.3     1  UNL1       -0.2714
@<TRIPOS>BOND
     1    30    31    1
     2    31    32    1
     3    31    33    1
     4    33    34    1
     5    34    35    1
     6    35    29    1
     7    29    22    1
     8    22    23   ar
     9    23    24   ar
    10    24    25   ar
    11    25    26   ar
    12    26    27    1
    13    26    28   ar
    14    28    21    1
    15    21    19    1
    16    19     1    1
    17     1     2   ar
    18     2     3   ar
    19     3     4    1
    20     3     5   ar
    21     5     9    1
    22     9    10    2
    23     9    11    2
    24     9    12    1
    25    12    14    1
    26    14    15   ar
    27    15    16   ar
    28    16    17   ar
    29    17    18   ar
    30     5     6   ar
    31     6     7    1
    32     6     8   ar
    33    35    31    1
    34    28    22   ar
    35     8     1   ar
    36    18    14   ar
    37    19    20    1
    38    12    13    1
@<TRIPOS>MOLECULE
*****
 35 38 0 0 0
SMALL
GASTEIGER

@<TRIPOS>ATOM
      1 C         138.4689  141.5972  164.2148 C.ar    1  UNL1        0.0495
      2 C         138.0745  141.6551  162.7687 C.ar    1  UNL1        0.0455
      3 C         138.6952  142.6767  161.8624 C.ar    1  UNL1        0.1623
      4 F         138.3008  142.7346  160.4163 F       1  UNL1       -0.2026
      5 C         139.7100  143.6403  162.4022 C.ar    1  UNL1        0.1798
      6 C         140.1044  143.5824  163.8483 C.ar    1  UNL1        0.1623
      7 F         141.1192  144.5460  164.3881 F       1  UNL1       -0.2026
      8 C         139.4838  142.5609  164.7546 C.ar    1  UNL1        0.0455
      9 S         140.3306  144.6618  161.4959 S.O2    1  UNL1        0.0791
     10 O         141.5304  143.7786  161.3220 O.2     1  UNL1       -0.1498
     11 O         139.1307  145.5450  161.6699 O.2     1  UNL1       -0.1498
     12 N         140.9512  145.6834  160.5896 N.pl3   1  UNL1       -0.1983
     13 H         141.2633  146.5420  160.9564 H       1  UNL1        0.1753
     14 C         141.0962  145.3966  159.1244 C.ar    1  UNL1        0.1542
     15 C         140.1238  144.6331  158.2749 C.ar    1  UNL1        0.0725
     16 S         140.6657  144.5876  156.8770 S.2     1  UNL1       -0.0625
     17 C         141.9730  145.3230  156.8624 C.ar    1  UNL1        0.1360
     18 N         142.2392  145.8230  158.2514 N.ar    1  UNL1       -0.2203
     19 N         137.8483  140.5757  165.1211 N.pl3   1  UNL1       -0.3289
     20 H         136.9985  140.7737  165.5770 H       1  UNL1        0.1471
     21 C         138.5225  139.2526  165.3327 C.3     1  UNL1        0.1163
     22 C         141.0032  138.5693  164.9727 C.ar    1  UNL1       -0.0063
     23 C         142.4208  138.5195  165.4604 C.ar    1  UNL1       -0.0030
     24 C         142.7754  139.1031  166.7959 C.ar    1  UNL1        0.0020
     25 C         141.7124  139.7366  167.6437 C.ar    1  UNL1        0.0293
     26 C         140.2948  139.7864  167.1560 C.ar    1  UNL1        0.1375
     27 F         139.2318  140.4199  168.0038 F       1  UNL1       -0.2045
     28 C         139.9402  139.2028  165.8205 C.ar    1  UNL1        0.0222
     29 C         140.6485  137.9857  163.6371 C.3     1  UNL1        0.0989
     30 C         138.9103  138.0288  161.7067 C.3     1  UNL1        0.0161
     31 C         139.9006  139.0240  161.1786 C.3     1  UNL1        0.0471
     32 C         139.0522  139.2199  159.9571 C.3     1  UNL1        0.0161
     33 C         140.8910  140.0192  160.6505 C.3     1  UNL1        0.0320
     34 C         141.7393  139.8231  161.8719 C.3     1  UNL1        0.0736
     35 N         140.7489  138.8280  162.4000 N.3     1  UNL1       -0.2714
@<TRIPOS>BOND
     1    30    31    1
     2    31    32    1
     3    31    33    1
     4    33    34    1
     5    34    35    1
     6    35    29    1
     7    29    22    1
     8    22    23   ar
     9    23    24   ar
    10    24    25   ar
    11    25    26   ar
    12    26    27    1
    13    26    28   ar
    14    28    21    1
    15    21    19    1
    16    19     1    1
    17     1     2   ar
    18     2     3   ar
    19     3     4    1
    20     3     5   ar
    21     5     9    1
    22     9    10    2
    23     9    11    2
    24     9    12    1
    25    12    14    1
    26    14    15   ar
    27    15    16   ar
    28    16    17   ar
    29    17    18   ar
    30     5     6   ar
    31     6     7    1
    32     6     8   ar
    33    35    31    1
    34    28    22   ar
    35     8     1   ar
    36    18    14   ar
    37    19    20    1
    38    12    13    1
@<TRIPOS>MOLECULE
*****
 35 38 0 0 0
SMALL
GASTEIGER

@<TRIPOS>ATOM
      1 C         139.7094  142.7613  164.5495 C.ar    1  UNL1        0.0495
      2 C         140.6170  143.9456  164.7030 C.ar    1  UNL1        0.0455
      3 C         141.0851  144.6940  163.4902 C.ar    1  UNL1        0.1623
      4 F         141.9927  145.8784  163.6437 F       1  UNL1       -0.2026
      5 C         140.6457  144.2579  162.1239 C.ar    1  UNL1        0.1798
      6 C         139.7382  143.0735  161.9704 C.ar    1  UNL1        0.1623
      7 F         139.2987  142.6375  160.6041 F       1  UNL1       -0.2026
      8 C         139.2700  142.3252  163.1831 C.ar    1  UNL1        0.0455
      9 S         141.1139  145.0062  160.9112 S.O2    1  UNL1        0.0791
     10 O         139.7893  145.7056  160.8314 O.2     1  UNL1       -0.1498
     11 O         142.4384  144.3069  160.9910 O.2     1  UNL1       -0.1498
     12 N         141.5820  145.7546  159.6984 N.pl3   1  UNL1       -0.1983
     13 H         141.9901  146.6452  159.7966 H       1  UNL1        0.1753
     14 C         141.4283  145.1462  158.3360 C.ar    1  UNL1        0.1542
     15 C         142.1340  145.5880  157.0883 C.ar    1  UNL1        0.0725
     16 S         141.6838  144.7039  155.9632 S.2     1  UNL1       -0.0625
     17 C         140.6999  143.7156  156.5156 C.ar    1  UNL1        0.1360
     18 N         140.5419  143.9889  157.9821 N.ar    1  UNL1       -0.2203
     19 N         139.2412  142.0129  165.7622 N.pl3   1  UNL1       -0.3289
     20 H         138.3378  142.1712  166.1200 H       1  UNL1        0.1471
     21 C         140.1495  141.0234  166.4299 C.3     1  UNL1        0.1163
     22 C         141.8535  139.2560  165.5796 C.ar    1  UNL1       -0.0063
     23 C         142.1396  137.9383  164.9225 C.ar    1  UNL1       -0.0030
     24 C         141.0078  137.0703  164.4584 C.ar    1  UNL1        0.0020
     25 C         139.5898  137.5200  164.6514 C.ar    1  UNL1        0.0293
     26 C         139.3037  138.8376  165.3086 C.ar    1  UNL1        0.1375
     27 F         137.8858  139.2873  165.5016 F       1  UNL1       -0.2045
     28 C         140.4356  139.7056  165.7727 C.ar    1  UNL1        0.0222
     29 C         142.9854  140.1241  166.0438 C.3     1  UNL1        0.0989
     30 C         143.4977  142.6306  166.4966 C.3     1  UNL1        0.0161
     31 C         144.0529  142.5048  165.1088 C.3     1  UNL1        0.0471
     32 C         144.4483  143.9516  165.1360 C.3     1  UNL1        0.0161
     33 C         144.6081  142.3791  163.7210 C.3     1  UNL1        0.0320
     34 C         144.2127  140.9324  163.6939 C.3     1  UNL1        0.0736
     35 N         143.6575  141.0581  165.0817 N.3     1  UNL1       -0.2714
@<TRIPOS>BOND
     1    30    31    1
     2    31    32    1
     3    31    33    1
     4    33    34    1
     5    34    35    1
     6    35    29    1
     7    29    22    1
     8    22    23   ar
     9    23    24   ar
    10    24    25   ar
    11    25    26   ar
    12    26    27    1
    13    26    28   ar
    14    28    21    1
    15    21    19    1
    16    19     1    1
    17     1     2   ar
    18     2     3   ar
    19     3     4    1
    20     3     5   ar
    21     5     9    1
    22     9    10    2
    23     9    11    2
    24     9    12    1
    25    12    14    1
    26    14    15   ar
    27    15    16   ar
    28    16    17   ar
    29    17    18   ar
    30     5     6   ar
    31     6     7    1
    32     6     8   ar
    33    35    31    1
    34    28    22   ar
    35     8     1   ar
    36    18    14   ar
    37    19    20    1
    38    12    13    1
@<TRIPOS>MOLECULE
*****
 35 38 0 0 0
SMALL
GASTEIGER

@<TRIPOS>ATOM
      1 C         140.0028  142.6423  164.7312 C.ar    1  UNL1        0.0495
      2 C         139.5805  142.0955  163.3997 C.ar    1  UNL1        0.0455
      3 C         139.9443  142.8244  162.1402 C.ar    1  UNL1        0.1623
      4 F         139.5221  142.2777  160.8087 F       1  UNL1       -0.2026
      5 C         140.7303  144.1000  162.2121 C.ar    1  UNL1        0.1798
      6 C         141.1525  144.6467  163.5436 C.ar    1  UNL1        0.1623
      7 F         141.9385  145.9222  163.6155 F       1  UNL1       -0.2026
      8 C         140.7888  143.9179  164.8031 C.ar    1  UNL1        0.0455
      9 S         141.0940  144.8288  160.9526 S.O2    1  UNL1        0.0791
     10 O         139.7131  145.4112  160.8908 O.2     1  UNL1       -0.1498
     11 O         142.4749  144.2464  161.0143 O.2     1  UNL1       -0.1498
     12 N         141.4577  145.5577  159.6929 N.pl3   1  UNL1       -0.1983
     13 H         142.1449  146.2624  159.7129 H       1  UNL1        0.1753
     14 C         140.7744  145.2128  158.4029 C.ar    1  UNL1        0.1542
     15 C         140.3496  146.1851  157.3427 C.ar    1  UNL1        0.0725
     16 S         139.7085  145.4083  156.2312 S.2     1  UNL1       -0.0625
     17 C         139.7371  143.9557  156.6044 C.ar    1  UNL1        0.1360
     18 N         140.3958  143.8348  157.9466 N.ar    1  UNL1       -0.2203
     19 N         139.6390  141.9135  165.9907 N.pl3   1  UNL1       -0.3289
     20 H         138.9712  141.1905  165.9658 H       1  UNL1        0.1471
     21 C         140.2928  142.2860  167.2883 C.3     1  UNL1        0.1163
     22 C         142.1976  140.5763  167.7340 C.ar    1  UNL1       -0.0063
     23 C         142.8148  139.5143  168.5949 C.ar    1  UNL1       -0.0030
     24 C         142.1443  139.1000  169.8712 C.ar    1  UNL1        0.0020
     25 C         140.8567  139.7477  170.2865 C.ar    1  UNL1        0.0293
     26 C         140.2395  140.8097  169.4256 C.ar    1  UNL1        0.1375
     27 F         138.9519  141.4575  169.8409 F       1  UNL1       -0.2045
     28 C         140.9100  141.2240  168.1493 C.ar    1  UNL1        0.0222
     29 C         142.8681  140.9906  166.4577 C.3     1  UNL1        0.0989
     30 C         143.6698  141.7300  164.0996 C.3     1  UNL1        0.0161
     31 C         142.8450  140.5347  163.7239 C.3     1  UNL1        0.0471
     32 C         143.1732  140.7628  162.2781 C.3     1  UNL1        0.0161
     33 C         142.0202  139.3395  163.3482 C.3     1  UNL1        0.0320
     34 C         141.6921  139.1115  164.7940 C.3     1  UNL1        0.0736
     35 N         142.5169  140.3067  165.1697 N.3     1  UNL1       -0.2714
@<TRIPOS>BOND
     1    30    31    1
     2    31    32    1
     3    31    33    1
     4    33    34    1
     5    34    35    1
     6    35    29    1
     7    29    22    1
     8    22    23   ar
     9    23    24   ar
    10    24    25   ar
    11    25    26   ar
    12    26    27    1
    13    26    28   ar
    14    28    21    1
    15    21    19    1
    16    19     1    1
    17     1     2   ar
    18     2     3   ar
    19     3     4    1
    20     3     5   ar
    21     5     9    1
    22     9    10    2
    23     9    11    2
    24     9    12    1
    25    12    14    1
    26    14    15   ar
    27    15    16   ar
    28    16    17   ar
    29    17    18   ar
    30     5     6   ar
    31     6     7    1
    32     6     8   ar
    33    35    31    1
    34    28    22   ar
    35     8     1   ar
    36    18    14   ar
    37    19    20    1
    38    12    13    1
@<TRIPOS>MOLECULE
*****
 35 38 0 0 0
SMALL
GASTEIGER

@<TRIPOS>ATOM
      1 C         142.9053  143.6227  161.5671 C.ar    1  UNL1        0.0495
      2 C         143.9033  142.6583  162.1363 C.ar    1  UNL1        0.0455
      3 C         144.0088  141.2705  161.5767 C.ar    1  UNL1        0.1623
      4 F         145.0067  140.3062  162.1460 F       1  UNL1       -0.2026
      5 C         143.1163  140.8472  160.4479 C.ar    1  UNL1        0.1798
      6 C         142.1184  141.8116  159.8786 C.ar    1  UNL1        0.1623
      7 F         141.2260  141.3883  158.7497 F       1  UNL1       -0.2026
      8 C         142.0129  143.1993  160.4381 C.ar    1  UNL1        0.0455
      9 S         143.2219  139.4595  159.8883 S.O2    1  UNL1        0.0791
     10 O         144.1151  139.9680  158.7959 O.2     1  UNL1       -0.1498
     11 O         142.3286  138.9511  160.9808 O.2     1  UNL1       -0.1498
     12 N         143.3274  138.0718  159.3287 N.pl3   1  UNL1       -0.1983
     13 H         143.9755  137.4357  159.7090 H       1  UNL1        0.1753
     14 C         142.4456  137.6533  158.1898 C.ar    1  UNL1        0.1542
     15 C         142.7747  136.6202  157.1533 C.ar    1  UNL1        0.0725
     16 S         141.6123  136.5229  156.2102 S.2     1  UNL1       -0.0625
     17 C         140.5647  137.4959  156.6639 C.ar    1  UNL1        0.1360
     18 N         141.0797  138.1946  157.8873 N.ar    1  UNL1       -0.2203
     19 N         142.7998  145.0104  162.1266 N.pl3   1  UNL1       -0.3289
     20 H         143.1220  145.7785  161.6019 H       1  UNL1        0.1471
     21 C         142.2034  145.2277  163.4857 C.3     1  UNL1        0.1163
     22 C         140.8688  143.4220  164.7928 C.ar    1  UNL1       -0.0063
     23 C         139.5625  142.7772  165.1504 C.ar    1  UNL1       -0.0030
     24 C         138.2846  143.2933  164.5585 C.ar    1  UNL1        0.0020
     25 C         138.3128  144.4542  163.6090 C.ar    1  UNL1        0.0293
     26 C         139.6191  145.0990  163.2514 C.ar    1  UNL1        0.1375
     27 F         139.6473  146.2599  162.3019 F       1  UNL1       -0.2045
     28 C         140.8970  144.5829  163.8433 C.ar    1  UNL1        0.0222
     29 C         142.1469  142.9059  165.3847 C.3     1  UNL1        0.0989
     30 C         142.4093  141.7890  167.7157 C.3     1  UNL1        0.0161
     31 C         142.4892  140.5729  166.8412 C.3     1  UNL1        0.0471
     32 C         142.6567  139.7100  168.0568 C.3     1  UNL1        0.0161
     33 C         142.5692  139.3568  165.9668 C.3     1  UNL1        0.0320
     34 C         142.4018  140.2197  164.7514 C.3     1  UNL1        0.0736
     35 N         142.3218  141.4358  165.6258 N.3     1  UNL1       -0.2714
@<TRIPOS>BOND
     1    30    31    1
     2    31    32    1
     3    31    33    1
     4    33    34    1
     5    34    35    1
     6    35    29    1
     7    29    22    1
     8    22    23   ar
     9    23    24   ar
    10    24    25   ar
    11    25    26   ar
    12    26    27    1
    13    26    28   ar
    14    28    21    1
    15    21    19    1
    16    19     1    1
    17     1     2   ar
    18     2     3   ar
    19     3     4    1
    20     3     5   ar
    21     5     9    1
    22     9    10    2
    23     9    11    2
    24     9    12    1
    25    12    14    1
    26    14    15   ar
    27    15    16   ar
    28    16    17   ar
    29    17    18   ar
    30     5     6   ar
    31     6     7    1
    32     6     8   ar
    33    35    31    1
    34    28    22   ar
    35     8     1   ar
    36    18    14   ar
    37    19    20    1
    38    12    13    1
