@<TRIPOS>MOLECULE
*****
 34 37 0 0 0
SMALL
GASTEIGER

@<TRIPOS>ATOM
      1 C         137.9046  142.5837  164.0838 C.3     1  UNL1        0.2722
      2 N         139.7323  142.2805  165.9053 N.am    1  UNL1       -0.2663
      3 C         138.6226  141.7122  165.0712 C.2     1  UNL1        0.2701
      4 O         138.2310  140.2723  165.2244 O.2     1  UNL1       -0.2707
      5 H         139.9893  143.2255  165.8047 H       1  UNL1        0.1564
      6 C         142.6045  138.7944  169.8547 C.3     1  UNL1        0.0327
      7 C         141.8864  139.6659  168.8673 C.ar    1  UNL1       -0.0026
      8 C         140.5477  140.2469  169.2143 C.ar    1  UNL1        0.0001
      9 C         139.8297  141.1184  168.2270 C.ar    1  UNL1        0.0342
     10 C         140.4503  141.4090  166.8927 C.ar    1  UNL1        0.1342
     11 N         141.7889  140.8280  166.5457 N.ar    1  UNL1       -0.2293
     12 C         142.5071  139.9565  167.5330 C.ar    1  UNL1        0.0960
     13 C         137.8711  144.0703  164.2810 C.3     1  UNL1        0.1950
     14 O         139.1527  144.8389  164.4096 O.3     1  UNL1       -0.3519
     15 C         140.0766  144.9586  163.2338 C.3     1  UNL1        0.1156
     16 C         139.7653  145.9263  162.1308 C.3     1  UNL1        0.0320
     17 C         141.3117  144.1106  163.1612 C.3     1  UNL1        0.0320
     18 O         137.2201  141.9687  162.8993 O.3     1  UNL1       -0.4517
     19 C         137.9561  141.8219  161.6005 C.ar    1  UNL1        0.2312
     20 N         138.2080  143.0251  160.7411 N.ar    1  UNL1       -0.1892
     21 C         138.9440  142.8783  159.4423 C.ar    1  UNL1        0.2029
     22 N         139.4280  141.5282  159.0030 N.ar    1  UNL1       -0.2045
     23 C         139.1761  140.3250  159.8625 C.ar    1  UNL1        0.1732
     24 C         138.4401  140.4718  161.1612 C.ar    1  UNL1        0.1099
     25 C         138.3401  139.1151  161.7933 C.ar    1  UNL1        0.1283
     26 N         139.0143  138.1298  160.8852 N.ar    1  UNL1       -0.1606
     27 N         139.5310  138.8776  159.6919 N.ar    1  UNL1       -0.1936
     28 C         140.2723  138.2824  158.5317 C.ar    1  UNL1        0.1759
     29 N         139.5164  137.7702  157.3417 N.ar    1  UNL1       -0.2242
     30 C         140.2578  137.1751  156.1814 C.ar    1  UNL1        0.1006
     31 C         141.7552  137.0921  156.2112 C.ar    1  UNL1        0.0217
     32 C         142.5111  137.6042  157.4012 C.ar    1  UNL1        0.0161
     33 C         141.7697  138.1994  158.5614 C.ar    1  UNL1        0.0935
     34 CL        142.5258  138.7116  159.7514 Cl      1  UNL1       -0.0790
@<TRIPOS>BOND
     1     6     7    1
     2     7     8   ar
     3     8     9   ar
     4     9    10   ar
     5    10     2    1
     6     2     3   am
     7     3     4    2
     8     3     1    1
     9     1    13    1
    10    13    14    1
    11    14    15    1
    12    15    16    1
    13    15    17    1
    14     1    18    1
    15    18    19    1
    16    19    20   ar
    17    20    21   ar
    18    21    22   ar
    19    22    23   ar
    20    23    24   ar
    21    24    25   ar
    22    25    26   ar
    23    26    27   ar
    24    27    28    1
    25    28    29   ar
    26    29    30   ar
    27    30    31   ar
    28    31    32   ar
    29    32    33   ar
    30    33    34    1
    31    10    11   ar
    32    11    12   ar
    33    12     7   ar
    34    24    19   ar
    35    33    28   ar
    36    27    23   ar
    37     2     5    1
@<TRIPOS>MOLECULE
*****
 34 37 0 0 0
SMALL
GASTEIGER

@<TRIPOS>ATOM
      1 C         141.3130  144.2678  161.6731 C.3     1  UNL1        0.2722
      2 N         141.7407  145.4876  159.4193 N.am    1  UNL1       -0.2663
      3 C         141.0106  144.4463  160.2147 C.2     1  UNL1        0.2701
      4 O         139.9782  143.5834  159.5517 O.2     1  UNL1       -0.2707
      5 H         142.4183  146.0539  159.8545 H       1  UNL1        0.1564
      6 C         140.5314  146.2016  153.5860 C.3     1  UNL1        0.0327
      7 C         140.8337  146.0231  155.0444 C.ar    1  UNL1       -0.0026
      8 C         142.0745  145.2952  155.4695 C.ar    1  UNL1        0.0001
      9 C         142.3768  145.1167  156.9278 C.ar    1  UNL1        0.0342
     10 C         141.4384  145.6661  157.9610 C.ar    1  UNL1        0.1342
     11 N         140.1976  146.3939  157.5359 N.ar    1  UNL1       -0.2293
     12 C         139.8953  146.5724  156.0776 C.ar    1  UNL1        0.0960
     13 C         140.8877  145.3137  162.6606 C.3     1  UNL1        0.1950
     14 O         139.4293  145.5729  162.8973 O.3     1  UNL1       -0.3519
     15 C         138.6378  144.6540  163.7801 C.3     1  UNL1        0.1156
     16 C         138.7174  144.7939  165.2714 C.3     1  UNL1        0.0320
     17 C         137.7668  143.5952  163.1716 C.3     1  UNL1        0.0320
     18 O         142.0406  143.0435  162.1438 O.3     1  UNL1       -0.4517
     19 C         142.6177  142.9997  163.5277 C.ar    1  UNL1        0.2312
     20 N         143.9486  143.6330  163.8058 N.ar    1  UNL1       -0.1892
     21 C         144.5256  143.5892  165.1896 C.ar    1  UNL1        0.2029
     22 N         143.7716  142.9120  166.2955 N.ar    1  UNL1       -0.2045
     23 C         142.4406  142.2787  166.0175 C.ar    1  UNL1        0.1732
     24 C         141.8636  142.3225  164.6336 C.ar    1  UNL1        0.1099
     25 C         140.5404  141.6165  164.6604 C.ar    1  UNL1        0.1283
     26 N         140.2997  141.1363  166.0609 N.ar    1  UNL1       -0.1606
     27 N         141.4740  141.5455  166.8996 N.ar    1  UNL1       -0.1936
     28 C         141.6508  141.2700  168.3634 C.ar    1  UNL1        0.1759
     29 N         142.4069  140.0547  168.8120 N.ar    1  UNL1       -0.2242
     30 C         142.5837  139.7792  170.2758 C.ar    1  UNL1        0.1006
     31 C         142.0043  140.7191  171.2912 C.ar    1  UNL1        0.0217
     32 C         141.2482  141.9344  170.8427 C.ar    1  UNL1        0.0161
     33 C         141.0714  142.2099  169.3788 C.ar    1  UNL1        0.0935
     34 CL        140.3153  143.4252  168.9304 Cl      1  UNL1       -0.0790
@<TRIPOS>BOND
     1     6     7    1
     2     7     8   ar
     3     8     9   ar
     4     9    10   ar
     5    10     2    1
     6     2     3   am
     7     3     4    2
     8     3     1    1
     9     1    13    1
    10    13    14    1
    11    14    15    1
    12    15    16    1
    13    15    17    1
    14     1    18    1
    15    18    19    1
    16    19    20   ar
    17    20    21   ar
    18    21    22   ar
    19    22    23   ar
    20    23    24   ar
    21    24    25   ar
    22    25    26   ar
    23    26    27   ar
    24    27    28    1
    25    28    29   ar
    26    29    30   ar
    27    30    31   ar
    28    31    32   ar
    29    32    33   ar
    30    33    34    1
    31    10    11   ar
    32    11    12   ar
    33    12     7   ar
    34    24    19   ar
    35    33    28   ar
    36    27    23   ar
    37     2     5    1
@<TRIPOS>MOLECULE
*****
 34 37 0 0 0
SMALL
GASTEIGER

@<TRIPOS>ATOM
      1 C         139.2052  138.5356  162.6876 C.3     1  UNL1        0.2722
      2 N         140.2835  139.7772  164.6990 N.am    1  UNL1       -0.2663
      3 C         139.7009  138.5299  164.1033 C.2     1  UNL1        0.2701
      4 O         139.6142  137.2769  164.9233 O.2     1  UNL1       -0.2707
      5 H         140.3405  140.5996  164.1608 H       1  UNL1        0.1564
      6 C         142.2667  139.7546  170.3617 C.3     1  UNL1        0.0327
      7 C         141.7709  139.7603  168.9460 C.ar    1  UNL1       -0.0026
      8 C         140.3490  140.1360  168.6508 C.ar    1  UNL1        0.0001
      9 C         139.8532  140.1417  167.2351 C.ar    1  UNL1        0.0342
     10 C         140.7793  139.7716  166.1146 C.ar    1  UNL1        0.1342
     11 N         142.2011  139.3958  166.4098 N.ar    1  UNL1       -0.2293
     12 C         142.6969  139.3902  167.8255 C.ar    1  UNL1        0.0960
     13 C         138.0107  139.3627  162.3145 C.3     1  UNL1        0.1950
     14 O         137.5236  140.4372  163.2409 O.3     1  UNL1       -0.3519
     15 C         137.8572  141.8734  162.9649 C.3     1  UNL1        0.1156
     16 C         137.8827  142.8668  164.0886 C.3     1  UNL1        0.0320
     17 C         138.1652  142.3162  161.5653 C.3     1  UNL1        0.0320
     18 O         139.9039  137.7142  161.6450 O.3     1  UNL1       -0.4517
     19 C         141.3015  138.0638  161.2272 C.ar    1  UNL1        0.2312
     20 N         142.4629  137.6721  162.0918 N.ar    1  UNL1       -0.1892
     21 C         143.8605  138.0217  161.6740 C.ar    1  UNL1        0.2029
     22 N         144.0966  138.7630  160.3916 N.ar    1  UNL1       -0.2045
     23 C         142.9352  139.1547  159.5269 C.ar    1  UNL1        0.1732
     24 C         141.5377  138.8051  159.9447 C.ar    1  UNL1        0.1099
     25 C         140.5977  139.3192  158.8948 C.ar    1  UNL1        0.1283
     26 N         141.4143  139.9865  157.8282 N.ar    1  UNL1       -0.1606
     27 N         142.8590  139.8848  158.2188 N.ar    1  UNL1       -0.1936
     28 C         144.0231  140.4194  157.4384 C.ar    1  UNL1        0.1759
     29 N         144.5825  139.6314  156.2913 N.ar    1  UNL1       -0.2242
     30 C         145.7466  140.1660  155.5109 C.ar    1  UNL1        0.1006
     31 C         146.3514  141.4887  155.8776 C.ar    1  UNL1        0.0217
     32 C         145.7920  142.2768  157.0248 C.ar    1  UNL1        0.0161
     33 C         144.6279  141.7422  157.8052 C.ar    1  UNL1        0.0935
     34 CL        144.0687  142.5304  158.9524 Cl      1  UNL1       -0.0790
@<TRIPOS>BOND
     1     6     7    1
     2     7     8   ar
     3     8     9   ar
     4     9    10   ar
     5    10     2    1
     6     2     3   am
     7     3     4    2
     8     3     1    1
     9     1    13    1
    10    13    14    1
    11    14    15    1
    12    15    16    1
    13    15    17    1
    14     1    18    1
    15    18    19    1
    16    19    20   ar
    17    20    21   ar
    18    21    22   ar
    19    22    23   ar
    20    23    24   ar
    21    24    25   ar
    22    25    26   ar
    23    26    27   ar
    24    27    28    1
    25    28    29   ar
    26    29    30   ar
    27    30    31   ar
    28    31    32   ar
    29    32    33   ar
    30    33    34    1
    31    10    11   ar
    32    11    12   ar
    33    12     7   ar
    34    24    19   ar
    35    33    28   ar
    36    27    23   ar
    37     2     5    1
@<TRIPOS>MOLECULE
*****
 34 37 0 0 0
SMALL
GASTEIGER

@<TRIPOS>ATOM
      1 C         139.2574  138.1637  161.3147 C.3     1  UNL1        0.2722
      2 N         141.4936  138.3540  160.0059 N.am    1  UNL1       -0.2663
      3 C         139.9941  138.3834  160.0266 C.2     1  UNL1        0.2701
      4 O         139.2312  138.6324  158.7594 O.2     1  UNL1       -0.2707
      5 H         141.9943  138.1905  160.8376 H       1  UNL1        0.1564
      6 C         144.4405  139.2327  154.8539 C.3     1  UNL1        0.0327
      7 C         143.7038  139.0131  156.1419 C.ar    1  UNL1       -0.0026
      8 C         143.1458  137.6587  156.4652 C.ar    1  UNL1        0.0001
      9 C         142.4091  137.4390  157.7532 C.ar    1  UNL1        0.0342
     10 C         142.2303  138.5737  158.7179 C.ar    1  UNL1        0.1342
     11 N         142.7883  139.9279  158.3946 N.ar    1  UNL1       -0.2293
     12 C         143.5250  140.1477  157.1066 C.ar    1  UNL1        0.0960
     13 C         137.8772  138.7231  161.4942 C.3     1  UNL1        0.1950
     14 O         137.6381  140.1953  161.3345 O.3     1  UNL1       -0.3519
     15 C         138.2031  141.1598  162.3349 C.3     1  UNL1        0.1156
     16 C         139.6530  141.5394  162.2745 C.3     1  UNL1        0.0320
     17 C         137.3182  141.7445  163.3955 C.3     1  UNL1        0.0320
     18 O         139.9009  137.3846  162.4233 O.3     1  UNL1       -0.4517
     19 C         140.6752  138.0992  163.4909 C.ar    1  UNL1        0.2312
     20 N         142.1581  138.2757  163.3510 N.ar    1  UNL1       -0.1892
     21 C         142.9324  138.9903  164.4186 C.ar    1  UNL1        0.2029
     22 N         142.2236  139.5284  165.6262 N.ar    1  UNL1       -0.2045
     23 C         140.7406  139.3519  165.7660 C.ar    1  UNL1        0.1732
     24 C         139.9664  138.6373  164.6984 C.ar    1  UNL1        0.1099
     25 C         138.5236  138.6150  165.1083 C.ar    1  UNL1        0.1283
     26 N         138.4062  139.3159  166.4293 N.ar    1  UNL1       -0.1606
     27 N         139.7764  139.7713  166.8358 N.ar    1  UNL1       -0.1936
     28 C         140.1217  140.5155  168.0915 C.ar    1  UNL1        0.1759
     29 N         140.1879  139.7870  169.4010 N.ar    1  UNL1       -0.2242
     30 C         140.5332  140.5311  170.6568 C.ar    1  UNL1        0.1006
     31 C         140.8124  142.0039  170.6031 C.ar    1  UNL1        0.0217
     32 C         140.7463  142.7325  169.2936 C.ar    1  UNL1        0.0161
     33 C         140.4010  141.9883  168.0378 C.ar    1  UNL1        0.0935
     34 CL        140.3349  142.7170  166.7284 Cl      1  UNL1       -0.0790
@<TRIPOS>BOND
     1     6     7    1
     2     7     8   ar
     3     8     9   ar
     4     9    10   ar
     5    10     2    1
     6     2     3   am
     7     3     4    2
     8     3     1    1
     9     1    13    1
    10    13    14    1
    11    14    15    1
    12    15    16    1
    13    15    17    1
    14     1    18    1
    15    18    19    1
    16    19    20   ar
    17    20    21   ar
    18    21    22   ar
    19    22    23   ar
    20    23    24   ar
    21    24    25   ar
    22    25    26   ar
    23    26    27   ar
    24    27    28    1
    25    28    29   ar
    26    29    30   ar
    27    30    31   ar
    28    31    32   ar
    29    32    33   ar
    30    33    34    1
    31    10    11   ar
    32    11    12   ar
    33    12     7   ar
    34    24    19   ar
    35    33    28   ar
    36    27    23   ar
    37     2     5    1
@<TRIPOS>MOLECULE
*****
 34 37 0 0 0
SMALL
GASTEIGER

@<TRIPOS>ATOM
      1 C         142.1114  139.4749  168.9676 C.3     1  UNL1        0.2722
      2 N         143.4501  137.4840  169.9648 N.am    1  UNL1       -0.2663
      3 C         142.9520  138.8952  170.0665 C.2     1  UNL1        0.2701
      4 O         143.2946  139.7268  171.2669 O.2     1  UNL1       -0.2707
      5 H         143.2252  136.9382  169.1769 H       1  UNL1        0.1564
      6 C         146.8126  135.1653  174.3599 C.3     1  UNL1        0.0327
      7 C         145.9720  135.7450  173.2612 C.ar    1  UNL1       -0.0026
      8 C         144.9559  134.8899  172.5635 C.ar    1  UNL1        0.0001
      9 C         144.1153  135.4696  171.4647 C.ar    1  UNL1        0.0342
     10 C         144.2907  136.9043  171.0636 C.ar    1  UNL1        0.1342
     11 N         145.3067  137.7593  171.7612 N.ar    1  UNL1       -0.2293
     12 C         146.1473  137.1797  172.8600 C.ar    1  UNL1        0.0960
     13 C         140.8486  140.2133  169.2994 C.3     1  UNL1        0.1950
     14 O         140.8516  141.2588  170.3749 O.3     1  UNL1       -0.3519
     15 C         141.3199  142.6502  170.0669 C.3     1  UNL1        0.1156
     16 C         140.3975  143.6190  169.3882 C.3     1  UNL1        0.0320
     17 C         142.7105  143.0729  170.4376 C.3     1  UNL1        0.0320
     18 O         142.5336  139.3161  167.5371 O.3     1  UNL1       -0.4517
     19 C         141.6748  139.8646  166.4363 C.ar    1  UNL1        0.2312
     20 N         140.4591  139.1098  165.9865 N.ar    1  UNL1       -0.1892
     21 C         139.6004  139.6584  164.8858 C.ar    1  UNL1        0.2029
     22 N         139.9573  140.9618  164.2349 N.ar    1  UNL1       -0.2045
     23 C         141.1730  141.7167  164.6847 C.ar    1  UNL1        0.1732
     24 C         142.0317  141.1681  165.7854 C.ar    1  UNL1        0.1099
     25 C         143.1606  142.1287  166.0152 C.ar    1  UNL1        0.1283
     26 N         142.9996  143.2710  165.0564 N.ar    1  UNL1       -0.1606
     27 N         141.7711  143.0163  164.2342 N.ar    1  UNL1       -0.1936
     28 C         141.2350  143.9053  163.1515 C.ar    1  UNL1        0.1759
     29 N         141.8775  143.9077  161.7961 N.ar    1  UNL1       -0.2242
     30 C         141.3414  144.7966  160.7134 C.ar    1  UNL1        0.1006
     31 C         140.1626  145.6832  160.9860 C.ar    1  UNL1        0.0217
     32 C         139.5200  145.6809  162.3414 C.ar    1  UNL1        0.0161
     33 C         140.0562  144.7919  163.4241 C.ar    1  UNL1        0.0935
     34 CL        139.4135  144.7896  164.7794 Cl      1  UNL1       -0.0790
@<TRIPOS>BOND
     1     6     7    1
     2     7     8   ar
     3     8     9   ar
     4     9    10   ar
     5    10     2    1
     6     2     3   am
     7     3     4    2
     8     3     1    1
     9     1    13    1
    10    13    14    1
    11    14    15    1
    12    15    16    1
    13    15    17    1
    14     1    18    1
    15    18    19    1
    16    19    20   ar
    17    20    21   ar
    18    21    22   ar
    19    22    23   ar
    20    23    24   ar
    21    24    25   ar
    22    25    26   ar
    23    26    27   ar
    24    27    28    1
    25    28    29   ar
    26    29    30   ar
    27    30    31   ar
    28    31    32   ar
    29    32    33   ar
    30    33    34    1
    31    10    11   ar
    32    11    12   ar
    33    12     7   ar
    34    24    19   ar
    35    33    28   ar
    36    27    23   ar
    37     2     5    1
@<TRIPOS>MOLECULE
*****
 34 37 0 0 0
SMALL
GASTEIGER

@<TRIPOS>ATOM
      1 C         141.2923  144.0371  159.3992 C.3     1  UNL1        0.2722
      2 N         140.0282  145.1395  157.4149 N.am    1  UNL1       -0.2663
      3 C         141.2202  145.0803  158.3236 C.2     1  UNL1        0.2701
      4 O         142.3400  146.0641  158.1568 O.2     1  UNL1       -0.2707
      5 H         139.2932  144.4937  157.5244 H       1  UNL1        0.1564
      6 C         139.7398  149.3119  153.1129 C.3     1  UNL1        0.0327
      7 C         139.8119  148.2688  154.1884 C.ar    1  UNL1       -0.0026
      8 C         140.6413  147.0359  153.9831 C.ar    1  UNL1        0.0001
      9 C         140.7134  145.9928  155.0586 C.ar    1  UNL1        0.0342
     10 C         139.9561  146.1826  156.3394 C.ar    1  UNL1        0.1342
     11 N         139.1268  147.4154  156.5448 N.ar    1  UNL1       -0.2293
     12 C         139.0547  148.4586  155.4693 C.ar    1  UNL1        0.0960
     13 C         142.6196  143.6495  159.9803 C.3     1  UNL1        0.1950
     14 O         143.0880  144.2727  161.2619 O.3     1  UNL1       -0.3519
     15 C         143.9207  143.4765  162.2225 C.3     1  UNL1        0.1156
     16 C         143.9707  143.8634  163.6709 C.3     1  UNL1        0.0320
     17 C         144.7032  142.2934  161.7348 C.3     1  UNL1        0.0320
     18 O         140.0369  143.3816  159.8934 O.3     1  UNL1       -0.4517
     19 C         139.6950  143.4211  161.3535 C.ar    1  UNL1        0.2312
     20 N         138.8465  144.5330  161.8952 N.ar    1  UNL1       -0.1892
     21 C         138.5046  144.5725  163.3552 C.ar    1  UNL1        0.2029
     22 N         139.0113  143.5000  164.2734 N.ar    1  UNL1       -0.2045
     23 C         139.8598  142.3880  163.7316 C.ar    1  UNL1        0.1732
     24 C         140.2016  142.3486  162.2717 C.ar    1  UNL1        0.1099
     25 C         141.0514  141.1369  162.0271 C.ar    1  UNL1        0.1283
     26 N         141.2347  140.4275  163.3360 N.ar    1  UNL1       -0.1606
     27 N         140.4982  141.2008  164.3894 N.ar    1  UNL1       -0.1936
     28 C         140.4148  140.8486  165.8451 C.ar    1  UNL1        0.1759
     29 N         141.5382  141.2120  166.7703 N.ar    1  UNL1       -0.2242
     30 C         141.4548  140.8598  168.2259 C.ar    1  UNL1        0.1006
     31 C         140.2480  140.1442  168.7565 C.ar    1  UNL1        0.0217
     32 C         139.1247  139.7808  167.8314 C.ar    1  UNL1        0.0161
     33 C         139.2080  140.1330  166.3757 C.ar    1  UNL1        0.0935
     34 CL        138.0846  139.7696  165.4506 Cl      1  UNL1       -0.0790
@<TRIPOS>BOND
     1     6     7    1
     2     7     8   ar
     3     8     9   ar
     4     9    10   ar
     5    10     2    1
     6     2     3   am
     7     3     4    2
     8     3     1    1
     9     1    13    1
    10    13    14    1
    11    14    15    1
    12    15    16    1
    13    15    17    1
    14     1    18    1
    15    18    19    1
    16    19    20   ar
    17    20    21   ar
    18    21    22   ar
    19    22    23   ar
    20    23    24   ar
    21    24    25   ar
    22    25    26   ar
    23    26    27   ar
    24    27    28    1
    25    28    29   ar
    26    29    30   ar
    27    30    31   ar
    28    31    32   ar
    29    32    33   ar
    30    33    34    1
    31    10    11   ar
    32    11    12   ar
    33    12     7   ar
    34    24    19   ar
    35    33    28   ar
    36    27    23   ar
    37     2     5    1
@<TRIPOS>MOLECULE
*****
 34 37 0 0 0
SMALL
GASTEIGER

@<TRIPOS>ATOM
      1 C         137.9233  139.5447  161.8473 C.3     1  UNL1        0.2722
      2 N         138.5834  139.3494  159.3420 N.am    1  UNL1       -0.2663
      3 C         138.2192  140.1933  160.5275 C.2     1  UNL1        0.2701
      4 O         138.1508  141.6856  160.3931 O.2     1  UNL1       -0.2707
      5 H         138.6283  138.3699  159.4302 H       1  UNL1        0.1564
      6 C         139.7666  141.9435  154.0628 C.3     1  UNL1        0.0327
      7 C         139.4708  141.2950  155.3826 C.ar    1  UNL1       -0.0026
      8 C         140.5836  141.0240  156.3513 C.ar    1  UNL1        0.0001
      9 C         140.2878  140.3755  157.6711 C.ar    1  UNL1        0.0342
     10 C         138.8792  139.9979  158.0223 C.ar    1  UNL1        0.1342
     11 N         137.7664  140.2689  157.0537 N.ar    1  UNL1       -0.2293
     12 C         138.0622  140.9175  155.7338 C.ar    1  UNL1        0.0960
     13 C         138.0829  138.0618  162.0067 C.3     1  UNL1        0.1950
     14 O         138.8296  137.5101  163.1849 O.3     1  UNL1       -0.3519
     15 C         140.3296  137.5204  163.1939 C.3     1  UNL1        0.1156
     16 C         141.0742  137.1986  164.4557 C.3     1  UNL1        0.0320
     17 C         141.0848  137.8527  161.9413 C.3     1  UNL1        0.0320
     18 O         137.4680  140.3791  163.0077 O.3     1  UNL1       -0.4517
     19 C         138.4765  140.9707  163.9475 C.ar    1  UNL1        0.2312
     20 N         139.2920  142.1560  163.5233 N.ar    1  UNL1       -0.1892
     21 C         140.3004  142.7476  164.4631 C.ar    1  UNL1        0.2029
     22 N         140.4932  142.1538  165.8270 N.ar    1  UNL1       -0.2045
     23 C         139.6776  140.9686  166.2512 C.ar    1  UNL1        0.1732
     24 C         138.6693  140.3770  165.3114 C.ar    1  UNL1        0.1099
     25 C         138.0157  139.2173  166.0028 C.ar    1  UNL1        0.1283
     26 N         138.6201  139.0922  167.3699 N.ar    1  UNL1       -0.1606
     27 N         139.6473  140.1745  167.5234 N.ar    1  UNL1       -0.1936
     28 C         140.4952  140.4198  168.7362 C.ar    1  UNL1        0.1759
     29 N         139.9169  141.1287  169.9248 N.ar    1  UNL1       -0.2242
     30 C         140.7648  141.3739  171.1376 C.ar    1  UNL1        0.1006
     31 C         142.1912  140.9103  171.1618 C.ar    1  UNL1        0.0217
     32 C         142.7695  140.2014  169.9731 C.ar    1  UNL1        0.0161
     33 C         141.9216  139.9561  168.7603 C.ar    1  UNL1        0.0935
     34 CL        142.5000  139.2472  167.5717 Cl      1  UNL1       -0.0790
@<TRIPOS>BOND
     1     6     7    1
     2     7     8   ar
     3     8     9   ar
     4     9    10   ar
     5    10     2    1
     6     2     3   am
     7     3     4    2
     8     3     1    1
     9     1    13    1
    10    13    14    1
    11    14    15    1
    12    15    16    1
    13    15    17    1
    14     1    18    1
    15    18    19    1
    16    19    20   ar
    17    20    21   ar
    18    21    22   ar
    19    22    23   ar
    20    23    24   ar
    21    24    25   ar
    22    25    26   ar
    23    26    27   ar
    24    27    28    1
    25    28    29   ar
    26    29    30   ar
    27    30    31   ar
    28    31    32   ar
    29    32    33   ar
    30    33    34    1
    31    10    11   ar
    32    11    12   ar
    33    12     7   ar
    34    24    19   ar
    35    33    28   ar
    36    27    23   ar
    37     2     5    1
@<TRIPOS>MOLECULE
*****
 34 37 0 0 0
SMALL
GASTEIGER

@<TRIPOS>ATOM
      1 C         142.3867  138.1268  162.8771 C.3     1  UNL1        0.2722
      2 N         140.9946  139.6467  164.4589 N.am    1  UNL1       -0.2663
      3 C         142.0666  138.6169  164.2582 C.2     1  UNL1        0.2701
      4 O         142.8185  138.0772  165.4386 O.2     1  UNL1       -0.2707
      5 H         140.5011  140.0009  163.6841 H       1  UNL1        0.1564
      6 C         139.7142  141.6072  169.9830 C.3     1  UNL1        0.0327
      7 C         140.0343  141.1171  168.6020 C.ar    1  UNL1       -0.0026
      8 C         141.0674  141.8243  167.7758 C.ar    1  UNL1        0.0001
      9 C         141.3875  141.3342  166.3948 C.ar    1  UNL1        0.0342
     10 C         140.6745  140.1369  165.8399 C.ar    1  UNL1        0.1342
     11 N         139.6414  139.4297  166.6660 N.ar    1  UNL1       -0.2293
     12 C         139.3212  139.9198  168.0471 C.ar    1  UNL1        0.0960
     13 C         143.7410  138.3830  162.2854 C.3     1  UNL1        0.1950
     14 O         144.0825  139.7439  161.7551 O.3     1  UNL1       -0.3519
     15 C         144.7498  140.7501  162.6454 C.3     1  UNL1        0.1156
     16 C         144.9622  142.1543  162.1629 C.3     1  UNL1        0.0320
     17 C         145.2046  140.3519  164.0182 C.3     1  UNL1        0.0320
     18 O         141.3524  137.3804  162.0877 O.3     1  UNL1       -0.4517
     19 C         140.1447  138.1002  161.5644 C.ar    1  UNL1        0.2312
     20 N         138.9266  138.2466  162.4272 N.ar    1  UNL1       -0.1892
     21 C         137.7190  138.9663  161.9039 C.ar    1  UNL1        0.2029
     22 N         137.7297  139.5395  160.5178 N.ar    1  UNL1       -0.2045
     23 C         138.9479  139.3930  159.6550 C.ar    1  UNL1        0.1732
     24 C         140.1554  138.6734  160.1783 C.ar    1  UNL1        0.1099
     25 C         141.2034  138.6853  159.1051 C.ar    1  UNL1        0.1283
     26 N         140.6435  139.4123  157.9186 N.ar    1  UNL1       -0.1606
     27 N         139.2495  139.8497  158.2584 N.ar    1  UNL1       -0.1936
     28 C         138.3203  140.6103  157.3595 C.ar    1  UNL1        0.1759
     29 N         137.5268  139.8844  156.3139 N.ar    1  UNL1       -0.2242
     30 C         136.5976  140.6450  155.4150 C.ar    1  UNL1        0.1006
     31 C         136.4618  142.1316  155.5617 C.ar    1  UNL1        0.0217
     32 C         137.2553  142.8575  156.6073 C.ar    1  UNL1        0.0161
     33 C         138.1845  142.0970  157.5062 C.ar    1  UNL1        0.0935
     34 CL        138.9780  142.8230  158.5518 Cl      1  UNL1       -0.0790
@<TRIPOS>BOND
     1     6     7    1
     2     7     8   ar
     3     8     9   ar
     4     9    10   ar
     5    10     2    1
     6     2     3   am
     7     3     4    2
     8     3     1    1
     9     1    13    1
    10    13    14    1
    11    14    15    1
    12    15    16    1
    13    15    17    1
    14     1    18    1
    15    18    19    1
    16    19    20   ar
    17    20    21   ar
    18    21    22   ar
    19    22    23   ar
    20    23    24   ar
    21    24    25   ar
    22    25    26   ar
    23    26    27   ar
    24    27    28    1
    25    28    29   ar
    26    29    30   ar
    27    30    31   ar
    28    31    32   ar
    29    32    33   ar
    30    33    34    1
    31    10    11   ar
    32    11    12   ar
    33    12     7   ar
    34    24    19   ar
    35    33    28   ar
    36    27    23   ar
    37     2     5    1
@<TRIPOS>MOLECULE
*****
 34 37 0 0 0
SMALL
GASTEIGER

@<TRIPOS>ATOM
      1 C         139.1761  141.7781  161.3633 C.3     1  UNL1        0.2722
      2 N         139.2327  143.6442  159.5566 N.am    1  UNL1       -0.2663
      3 C         139.7319  142.3321  160.0849 C.2     1  UNL1        0.2701
      4 O         140.7868  141.5741  159.3349 O.2     1  UNL1       -0.2707
      5 H         138.5403  144.1418  160.0488 H       1  UNL1        0.1564
      6 C         141.4555  145.8606  154.4432 C.3     1  UNL1        0.0327
      7 C         140.8998  145.3065  155.7215 C.ar    1  UNL1       -0.0026
      8 C         141.3658  145.8499  157.0397 C.ar    1  UNL1        0.0001
      9 C         140.8101  145.2959  158.3181 C.ar    1  UNL1        0.0342
     10 C         139.7884  144.1983  158.2783 C.ar    1  UNL1        0.1342
     11 N         139.3224  143.6549  156.9601 N.ar    1  UNL1       -0.2293
     12 C         139.8781  144.2090  155.6817 C.ar    1  UNL1        0.0960
     13 C         137.9614  142.4007  161.9851 C.3     1  UNL1        0.1950
     14 O         137.8991  143.8859  162.1854 O.3     1  UNL1       -0.3519
     15 C         138.7874  144.5439  163.1994 C.3     1  UNL1        0.1156
     16 C         138.4497  144.4610  164.6586 C.3     1  UNL1        0.0320
     17 C         140.0134  145.2846  162.7542 C.3     1  UNL1        0.0320
     18 O         139.8352  140.6014  162.0198 O.3     1  UNL1       -0.4517
     19 C         139.5901  140.3185  163.4724 C.ar    1  UNL1        0.2312
     20 N         138.5752  139.2901  163.8755 N.ar    1  UNL1       -0.1892
     21 C         138.3302  139.0073  165.3280 C.ar    1  UNL1        0.2029
     22 N         139.1000  139.7529  166.3775 N.ar    1  UNL1       -0.2045
     23 C         140.1149  140.7812  165.9745 C.ar    1  UNL1        0.1732
     24 C         140.3599  141.0641  164.5220 C.ar    1  UNL1        0.1099
     25 C         141.4156  142.1256  164.4280 C.ar    1  UNL1        0.1283
     26 N         141.8230  142.4988  165.8226 N.ar    1  UNL1       -0.1606
     27 N         141.0191  141.6679  166.7783 N.ar    1  UNL1       -0.1936
     28 C         141.1045  141.7154  168.2751 C.ar    1  UNL1        0.1759
     29 N         140.3374  142.7548  169.0375 N.ar    1  UNL1       -0.2242
     30 C         140.4228  142.8023  170.5343 C.ar    1  UNL1        0.1006
     31 C         141.2752  141.8104  171.2688 C.ar    1  UNL1        0.0217
     32 C         142.0422  140.7710  170.5064 C.ar    1  UNL1        0.0161
     33 C         141.9569  140.7235  169.0096 C.ar    1  UNL1        0.0935
     34 CL        142.7239  139.6840  168.2473 Cl      1  UNL1       -0.0790
@<TRIPOS>BOND
     1     6     7    1
     2     7     8   ar
     3     8     9   ar
     4     9    10   ar
     5    10     2    1
     6     2     3   am
     7     3     4    2
     8     3     1    1
     9     1    13    1
    10    13    14    1
    11    14    15    1
    12    15    16    1
    13    15    17    1
    14     1    18    1
    15    18    19    1
    16    19    20   ar
    17    20    21   ar
    18    21    22   ar
    19    22    23   ar
    20    23    24   ar
    21    24    25   ar
    22    25    26   ar
    23    26    27   ar
    24    27    28    1
    25    28    29   ar
    26    29    30   ar
    27    30    31   ar
    28    31    32   ar
    29    32    33   ar
    30    33    34    1
    31    10    11   ar
    32    11    12   ar
    33    12     7   ar
    34    24    19   ar
    35    33    28   ar
    36    27    23   ar
    37     2     5    1
