@<TRIPOS>MOLECULE
*****
 31 33 0 0 0
SMALL
GASTEIGER

@<TRIPOS>ATOM
      1 C         141.0943  142.3408  163.5502 C.ar    1  UNL1        0.1079
      2 N         142.2883  141.8441  162.7902 N.ar    1  UNL1       -0.1682
      3 N         142.5823  142.8263  161.6952 N.ar    1  UNL1       -0.2418
      4 C         141.5700  143.9300  161.7785 C.ar    1  UNL1        0.1279
      5 N         141.4911  145.1241  160.8741 N.pl3   1  UNL1       -0.3427
      6 C         140.6502  143.6301  162.9249 C.ar    1  UNL1        0.1031
      7 H         142.1439  145.2337  160.1454 H       1  UNL1        0.1437
      8 H         140.7865  145.7983  161.0093 H       1  UNL1        0.1437
      9 C         138.8367  140.1259  169.6532 C.ar    1  UNL1        0.1400
     10 C         139.7695  141.2814  169.8646 C.ar    1  UNL1        0.0369
     11 C         140.4076  141.9554  168.6863 C.ar    1  UNL1        0.0031
     12 C         140.1129  141.4741  167.2966 C.ar    1  UNL1        0.0002
     13 C         140.7509  142.1481  166.1182 C.ar    1  UNL1        0.0016
     14 C         140.4562  141.6667  164.7285 C.ar    1  UNL1        0.0196
     15 C         139.5233  140.5112  164.5171 C.ar    1  UNL1        0.0016
     16 C         138.8853  139.8371  165.6954 C.ar    1  UNL1        0.0001
     17 C         139.1801  140.3186  167.0852 C.ar    1  UNL1        0.0030
     18 C         138.5420  139.6445  168.2635 C.ar    1  UNL1        0.0369
     19 O         138.1987  139.4518  170.8316 O.3     1  UNL1       -0.4612
     20 C         136.7403  139.1026  170.7969 C.3     1  UNL1        0.2820
     21 C         135.5955  137.2367  172.8482 C.1     1  UNL1       -0.0105
     22 C         136.1679  138.1696  171.8225 C.1     1  UNL1       -0.0307
     23 C         139.4903  144.4714  163.3681 C.2     1  UNL1        0.2470
     24 N         139.5269  145.1561  164.7022 N.am    1  UNL1       -0.3252
     25 O         138.2937  144.6282  162.4772 O.2     1  UNL1       -0.2702
     26 H         140.3122  145.0533  165.2870 H       1  UNL1        0.1453
     27 H         138.7655  145.7084  164.9931 H       1  UNL1        0.1453
     28 C         143.6935  142.7229  160.6931 C.3     1  UNL1        0.0879
     29 C         142.7366  142.1478  159.6913 C.3     1  UNL1        0.0245
     30 C         144.6505  143.2981  161.6948 C.3     1  UNL1        0.0245
     31 C         144.8048  142.6196  159.6909 C.3     1  UNL1        0.0245
@<TRIPOS>BOND
     1    21    22    3
     2    22    20    1
     3    20    19    1
     4    19     9    1
     5     9    10   ar
     6    10    11   ar
     7    11    12   ar
     8    12    13   ar
     9    13    14   ar
    10    14     1    1
    11     1     2   ar
    12     2     3   ar
    13     3    28    1
    14    28    29    1
    15    28    30    1
    16    28    31    1
    17     3     4   ar
    18     4     5    1
    19     4     6   ar
    20     6    23    1
    21    23    24   am
    22    23    25    2
    23    14    15   ar
    24    15    16   ar
    25    16    17   ar
    26    17    18   ar
    27    18     9   ar
    28    17    12   ar
    29     6     1   ar
    30     5     7    1
    31     5     8    1
    32    24    26    1
    33    24    27    1
@<TRIPOS>MOLECULE
*****
 31 33 0 0 0
SMALL
GASTEIGER

@<TRIPOS>ATOM
      1 C         139.6444  140.8820  166.0883 C.ar    1  UNL1        0.1079
      2 N         140.5793  141.8966  166.6771 N.ar    1  UNL1       -0.1682
      3 N         140.7385  141.5884  168.1365 N.ar    1  UNL1       -0.2418
      4 C         139.9020  140.3833  168.4496 C.ar    1  UNL1        0.1279
      5 N         139.7655  139.7296  169.7928 N.pl3   1  UNL1       -0.3427
      6 C         139.2258  139.9467  167.1838 C.ar    1  UNL1        0.1031
      7 H         140.2521  140.0917  170.5682 H       1  UNL1        0.1437
      8 H         139.1894  138.9383  169.8989 H       1  UNL1        0.1437
      9 C         138.7455  139.9168  159.3422 C.ar    1  UNL1        0.1400
     10 C         140.0422  139.2889  159.7596 C.ar    1  UNL1        0.0369
     11 C         140.4813  139.3563  161.1923 C.ar    1  UNL1        0.0031
     12 C         139.6237  140.0517  162.2076 C.ar    1  UNL1        0.0002
     13 C         140.0629  140.1192  163.6403 C.ar    1  UNL1        0.0016
     14 C         139.2053  140.8145  164.6557 C.ar    1  UNL1        0.0196
     15 C         137.9085  141.4425  164.2383 C.ar    1  UNL1        0.0016
     16 C         137.4694  141.3750  162.8056 C.ar    1  UNL1        0.0001
     17 C         138.3270  140.6796  161.7903 C.ar    1  UNL1        0.0030
     18 C         137.8879  140.6121  160.3576 C.ar    1  UNL1        0.0369
     19 O         138.3063  139.8493  157.9095 O.3     1  UNL1       -0.4612
     20 C         137.6945  141.0523  157.2552 C.3     1  UNL1        0.2820
     21 C         135.0386  140.8233  155.8791 C.1     1  UNL1       -0.0105
     22 C         136.3665  140.9378  156.5671 C.1     1  UNL1       -0.0307
     23 C         138.2945  138.7798  167.0390 C.2     1  UNL1        0.2470
     24 N         138.3590  137.9163  165.8141 N.am    1  UNL1       -0.3252
     25 O         137.2987  138.4763  168.1190 O.2     1  UNL1       -0.2702
     26 H         139.0125  138.1154  165.1053 H       1  UNL1        0.1453
     27 H         137.7477  137.1504  165.7191 H       1  UNL1        0.1453
     28 C         141.5854  142.3512  169.1115 C.3     1  UNL1        0.0879
     29 C         142.7362  141.4305  168.8323 C.3     1  UNL1        0.0245
     30 C         140.4345  143.2720  169.3907 C.3     1  UNL1        0.0245
     31 C         142.4323  143.1141  170.0865 C.3     1  UNL1        0.0245
@<TRIPOS>BOND
     1    21    22    3
     2    22    20    1
     3    20    19    1
     4    19     9    1
     5     9    10   ar
     6    10    11   ar
     7    11    12   ar
     8    12    13   ar
     9    13    14   ar
    10    14     1    1
    11     1     2   ar
    12     2     3   ar
    13     3    28    1
    14    28    29    1
    15    28    30    1
    16    28    31    1
    17     3     4   ar
    18     4     5    1
    19     4     6   ar
    20     6    23    1
    21    23    24   am
    22    23    25    2
    23    14    15   ar
    24    15    16   ar
    25    16    17   ar
    26    17    18   ar
    27    18     9   ar
    28    17    12   ar
    29     6     1   ar
    30     5     7    1
    31     5     8    1
    32    24    26    1
    33    24    27    1
@<TRIPOS>MOLECULE
*****
 31 33 0 0 0
SMALL
GASTEIGER

@<TRIPOS>ATOM
      1 C         140.2211  142.4294  165.9770 C.ar    1  UNL1        0.1079
      2 N         140.9664  142.7919  167.2272 N.ar    1  UNL1       -0.1682
      3 N         140.6591  141.7554  168.2671 N.ar    1  UNL1       -0.2418
      4 C         139.7239  140.7523  167.6596 C.ar    1  UNL1        0.1279
      5 N         139.1586  139.5448  168.3467 N.pl3   1  UNL1       -0.3427
      6 C         139.4531  141.1688  166.2442 C.ar    1  UNL1        0.1031
      7 H         139.3967  139.3545  169.2828 H       1  UNL1        0.1437
      8 H         138.5494  138.9424  167.8615 H       1  UNL1        0.1437
      9 C         141.1998  145.0485  159.6975 C.ar    1  UNL1        0.1400
     10 C         142.0823  143.8483  159.8719 C.ar    1  UNL1        0.0369
     11 C         142.0631  143.0844  161.1627 C.ar    1  UNL1        0.0031
     12 C         141.1613  143.5208  162.2791 C.ar    1  UNL1        0.0002
     13 C         141.1421  142.7569  163.5699 C.ar    1  UNL1        0.0016
     14 C         140.2403  143.1933  164.6862 C.ar    1  UNL1        0.0196
     15 C         139.3577  144.3936  164.5119 C.ar    1  UNL1        0.0016
     16 C         139.3770  145.1575  163.2211 C.ar    1  UNL1        0.0001
     17 C         140.2788  144.7210  162.1047 C.ar    1  UNL1        0.0030
     18 C         140.2981  145.4849  160.8139 C.ar    1  UNL1        0.0369
     19 O         141.2191  145.8124  158.4067 O.3     1  UNL1       -0.4612
     20 C         140.1985  145.5203  157.3470 C.3     1  UNL1        0.2820
     21 C         139.0661  147.7559  155.6979 C.1     1  UNL1       -0.0105
     22 C         139.6323  146.6381  156.5225 C.1     1  UNL1       -0.0307
     23 C         138.5696  140.4509  165.2675 C.2     1  UNL1        0.2470
     24 N         137.5846  141.2220  164.4398 N.am    1  UNL1       -0.3252
     25 O         138.6711  138.9617  165.1185 O.2     1  UNL1       -0.2702
     26 H         137.5180  142.1994  164.5375 H       1  UNL1        0.1453
     27 H         137.0048  140.7507  163.7988 H       1  UNL1        0.1453
     28 C         141.1932  141.7270  169.6685 C.3     1  UNL1        0.0879
     29 C         142.3713  140.9234  169.2032 C.3     1  UNL1        0.0245
     30 C         140.0151  142.5306  170.1338 C.3     1  UNL1        0.0245
     31 C         141.7273  141.6986  171.0699 C.3     1  UNL1        0.0245
@<TRIPOS>BOND
     1    21    22    3
     2    22    20    1
     3    20    19    1
     4    19     9    1
     5     9    10   ar
     6    10    11   ar
     7    11    12   ar
     8    12    13   ar
     9    13    14   ar
    10    14     1    1
    11     1     2   ar
    12     2     3   ar
    13     3    28    1
    14    28    29    1
    15    28    30    1
    16    28    31    1
    17     3     4   ar
    18     4     5    1
    19     4     6   ar
    20     6    23    1
    21    23    24   am
    22    23    25    2
    23    14    15   ar
    24    15    16   ar
    25    16    17   ar
    26    17    18   ar
    27    18     9   ar
    28    17    12   ar
    29     6     1   ar
    30     5     7    1
    31     5     8    1
    32    24    26    1
    33    24    27    1
@<TRIPOS>MOLECULE
*****
 31 33 0 0 0
SMALL
GASTEIGER

@<TRIPOS>ATOM
      1 C         140.7197  139.9499  166.0327 C.ar    1  UNL1        0.1079
      2 N         139.8766  140.7871  166.9483 N.ar    1  UNL1       -0.1682
      3 N         140.6312  140.9749  168.2310 N.ar    1  UNL1       -0.2418
      4 C         141.9407  140.2537  168.1082 C.ar    1  UNL1        0.1279
      5 N         143.0081  140.1790  169.1594 N.pl3   1  UNL1       -0.3427
      6 C         141.9955  139.6202  166.7496 C.ar    1  UNL1        0.1031
      7 H         142.8792  140.6304  170.0248 H       1  UNL1        0.1437
      8 H         143.8376  139.6786  168.9840 H       1  UNL1        0.1437
      9 C         139.4223  139.1693  159.3277 C.ar    1  UNL1        0.1400
     10 C         139.9648  140.5473  159.5657 C.ar    1  UNL1        0.0369
     11 C         140.3328  140.9790  160.9543 C.ar    1  UNL1        0.0031
     12 C         140.1583  140.0327  162.1049 C.ar    1  UNL1        0.0002
     13 C         140.5262  140.4645  163.4935 C.ar    1  UNL1        0.0016
     14 C         140.3517  139.5182  164.6442 C.ar    1  UNL1        0.0196
     15 C         139.8092  138.1400  164.4062 C.ar    1  UNL1        0.0016
     16 C         139.4412  137.7083  163.0176 C.ar    1  UNL1        0.0001
     17 C         139.6158  138.6547  161.8670 C.ar    1  UNL1        0.0030
     18 C         139.2478  138.2230  160.4784 C.ar    1  UNL1        0.0369
     19 O         139.0543  138.7375  157.9391 O.3     1  UNL1       -0.4612
     20 C         139.8972  137.7265  157.2199 C.3     1  UNL1        0.2820
     21 C         142.8890  137.8864  157.3729 C.1     1  UNL1       -0.0105
     22 C         141.3931  137.8064  157.2964 C.1     1  UNL1       -0.0307
     23 C         143.1271  138.8009  166.2038 C.2     1  UNL1        0.2470
     24 N         143.4823  138.8875  164.7490 N.am    1  UNL1       -0.3252
     25 O         143.9037  137.8949  167.1127 O.2     1  UNL1       -0.2702
     26 H         142.9726  139.4821  164.1524 H       1  UNL1        0.1453
     27 H         144.2251  138.3497  164.3908 H       1  UNL1        0.1453
     28 C         140.1593  141.7480  169.4265 C.3     1  UNL1        0.0879
     29 C         140.8267  142.9808  168.8929 C.3     1  UNL1        0.0245
     30 C         139.4917  140.5152  169.9603 C.3     1  UNL1        0.0245
     31 C         139.6873  142.5211  170.6222 C.3     1  UNL1        0.0245
@<TRIPOS>BOND
     1    21    22    3
     2    22    20    1
     3    20    19    1
     4    19     9    1
     5     9    10   ar
     6    10    11   ar
     7    11    12   ar
     8    12    13   ar
     9    13    14   ar
    10    14     1    1
    11     1     2   ar
    12     2     3   ar
    13     3    28    1
    14    28    29    1
    15    28    30    1
    16    28    31    1
    17     3     4   ar
    18     4     5    1
    19     4     6   ar
    20     6    23    1
    21    23    24   am
    22    23    25    2
    23    14    15   ar
    24    15    16   ar
    25    16    17   ar
    26    17    18   ar
    27    18     9   ar
    28    17    12   ar
    29     6     1   ar
    30     5     7    1
    31     5     8    1
    32    24    26    1
    33    24    27    1
@<TRIPOS>MOLECULE
*****
 31 33 0 0 0
SMALL
GASTEIGER

@<TRIPOS>ATOM
      1 C         139.9463  141.6450  166.2415 C.ar    1  UNL1        0.1079
      2 N         140.8252  142.5856  167.0113 N.ar    1  UNL1       -0.1682
      3 N         141.0332  142.0097  168.3807 N.ar    1  UNL1       -0.2418
      4 C         140.2827  140.7132  168.4572 C.ar    1  UNL1        0.1279
      5 N         140.2157  139.8021  169.6468 N.pl3   1  UNL1       -0.3427
      6 C         139.6109  140.4877  167.1350 C.ar    1  UNL1        0.1031
      7 H         140.6933  140.0377  170.4749 H       1  UNL1        0.1437
      8 H         139.6941  138.9684  169.5997 H       1  UNL1        0.1437
      9 C         138.9778  141.9599  159.4435 C.ar    1  UNL1        0.1400
     10 C         140.3216  141.3538  159.7204 C.ar    1  UNL1        0.0369
     11 C         140.7841  141.1696  161.1354 C.ar    1  UNL1        0.0031
     12 C         139.9027  141.5915  162.2734 C.ar    1  UNL1        0.0002
     13 C         140.3652  141.4073  163.6884 C.ar    1  UNL1        0.0016
     14 C         139.4838  141.8292  164.8265 C.ar    1  UNL1        0.0196
     15 C         138.1400  142.4354  164.5495 C.ar    1  UNL1        0.0016
     16 C         137.6775  142.6196  163.1345 C.ar    1  UNL1        0.0001
     17 C         138.5589  142.1976  161.9965 C.ar    1  UNL1        0.0030
     18 C         138.0965  142.3819  160.5815 C.ar    1  UNL1        0.0369
     19 O         138.5154  142.1442  158.0285 O.3     1  UNL1       -0.4612
     20 C         139.0347  143.2910  157.2130 C.3     1  UNL1        0.2820
     21 C         140.6408  145.4586  158.5252 C.1     1  UNL1       -0.0105
     22 C         139.8377  144.3748  157.8691 C.1     1  UNL1       -0.0307
     23 C         138.7544  139.3116  166.7705 C.2     1  UNL1        0.2470
     24 N         138.8735  138.6897  165.4108 N.am    1  UNL1       -0.3252
     25 O         137.7785  138.7573  167.7658 O.2     1  UNL1       -0.2702
     26 H         139.5139  139.0534  164.7575 H       1  UNL1        0.1453
     27 H         138.3112  137.9177  165.1716 H       1  UNL1        0.1453
     28 C         141.8483  142.6227  169.4805 C.3     1  UNL1        0.0879
     29 C         143.0465  141.8423  169.0275 C.3     1  UNL1        0.0245
     30 C         140.6501  143.4032  169.9336 C.3     1  UNL1        0.0245
     31 C         142.6635  143.2358  170.5804 C.3     1  UNL1        0.0245
@<TRIPOS>BOND
     1    21    22    3
     2    22    20    1
     3    20    19    1
     4    19     9    1
     5     9    10   ar
     6    10    11   ar
     7    11    12   ar
     8    12    13   ar
     9    13    14   ar
    10    14     1    1
    11     1     2   ar
    12     2     3   ar
    13     3    28    1
    14    28    29    1
    15    28    30    1
    16    28    31    1
    17     3     4   ar
    18     4     5    1
    19     4     6   ar
    20     6    23    1
    21    23    24   am
    22    23    25    2
    23    14    15   ar
    24    15    16   ar
    25    16    17   ar
    26    17    18   ar
    27    18     9   ar
    28    17    12   ar
    29     6     1   ar
    30     5     7    1
    31     5     8    1
    32    24    26    1
    33    24    27    1
@<TRIPOS>MOLECULE
*****
 31 33 0 0 0
SMALL
GASTEIGER

@<TRIPOS>ATOM
      1 C         141.2322  142.8794  161.4316 C.ar    1  UNL1        0.1079
      2 N         141.8379  142.0889  160.3100 N.ar    1  UNL1       -0.1682
      3 N         142.1208  143.0319  159.1782 N.ar    1  UNL1       -0.2418
      4 C         141.6899  144.4052  159.6004 C.ar    1  UNL1        0.1279
      5 N         141.7905  145.6536  158.7749 N.pl3   1  UNL1       -0.3427
      6 C         141.1407  144.3111  160.9931 C.ar    1  UNL1        0.1031
      7 H         142.1679  145.6139  157.8665 H       1  UNL1        0.1437
      8 H         141.4792  146.5126  159.1416 H       1  UNL1        0.1437
      9 C         140.5058  140.2530  167.7423 C.ar    1  UNL1        0.1400
     10 C         141.9667  140.3530  167.4172 C.ar    1  UNL1        0.0369
     11 C         142.4042  140.8982  166.0901 C.ar    1  UNL1        0.0031
     12 C         141.3807  141.3436  165.0880 C.ar    1  UNL1        0.0002
     13 C         141.8182  141.8888  163.7608 C.ar    1  UNL1        0.0016
     14 C         140.7947  142.3342  162.7588 C.ar    1  UNL1        0.0196
     15 C         139.3337  142.2343  163.0838 C.ar    1  UNL1        0.0016
     16 C         138.8963  141.6890  164.4110 C.ar    1  UNL1        0.0001
     17 C         139.9198  141.2436  165.4131 C.ar    1  UNL1        0.0030
     18 C         139.4823  140.6984  166.7402 C.ar    1  UNL1        0.0369
     19 O         140.0683  139.7078  169.0694 O.3     1  UNL1       -0.4612
     20 C         139.7113  140.6452  170.1846 C.3     1  UNL1        0.2820
     21 C         140.3145  143.5733  169.9339 C.1     1  UNL1       -0.0105
     22 C         140.0129  142.1093  170.0592 C.1     1  UNL1       -0.0307
     23 C         140.5957  145.4486  161.8047 C.2     1  UNL1        0.2470
     24 N         141.2977  145.8796  163.0583 N.am    1  UNL1       -0.3252
     25 O         139.3486  146.1554  161.3628 O.2     1  UNL1       -0.2702
     26 H         142.1162  145.4158  163.3484 H       1  UNL1        0.1453
     27 H         140.9399  146.6263  163.5910 H       1  UNL1        0.1453
     28 C         142.7280  142.6658  157.8564 C.3     1  UNL1        0.0879
     29 C         144.0995  142.8462  158.4364 C.3     1  UNL1        0.0245
     30 C         141.3564  142.4855  157.2764 C.3     1  UNL1        0.0245
     31 C         143.3351  142.2998  156.5345 C.3     1  UNL1        0.0245
@<TRIPOS>BOND
     1    21    22    3
     2    22    20    1
     3    20    19    1
     4    19     9    1
     5     9    10   ar
     6    10    11   ar
     7    11    12   ar
     8    12    13   ar
     9    13    14   ar
    10    14     1    1
    11     1     2   ar
    12     2     3   ar
    13     3    28    1
    14    28    29    1
    15    28    30    1
    16    28    31    1
    17     3     4   ar
    18     4     5    1
    19     4     6   ar
    20     6    23    1
    21    23    24   am
    22    23    25    2
    23    14    15   ar
    24    15    16   ar
    25    16    17   ar
    26    17    18   ar
    27    18     9   ar
    28    17    12   ar
    29     6     1   ar
    30     5     7    1
    31     5     8    1
    32    24    26    1
    33    24    27    1
@<TRIPOS>MOLECULE
*****
 31 33 0 0 0
SMALL
GASTEIGER

@<TRIPOS>ATOM
      1 C         140.5733  141.6256  166.0565 C.ar    1  UNL1        0.1079
      2 N         141.2404  141.9373  167.3633 N.ar    1  UNL1       -0.1682
      3 N         140.5653  141.1304  168.4325 N.ar    1  UNL1       -0.2418
      4 C         139.4809  140.3200  167.7865 C.ar    1  UNL1        0.1279
      5 N         138.5543  139.3703  168.4860 N.pl3   1  UNL1       -0.3427
      6 C         139.4858  140.6260  166.3180 C.ar    1  UNL1        0.1031
      7 H         138.6294  139.2358  169.4584 H       1  UNL1        0.1437
      8 H         137.8710  138.8814  167.9728 H       1  UNL1        0.1437
      9 C         141.2666  145.1674  160.2063 C.ar    1  UNL1        0.1400
     10 C         140.1724  145.7836  161.0266 C.ar    1  UNL1        0.0369
     11 C         139.8149  145.1985  162.3607 C.ar    1  UNL1        0.0031
     12 C         140.5516  143.9971  162.8745 C.ar    1  UNL1        0.0002
     13 C         140.1941  143.4120  164.2086 C.ar    1  UNL1        0.0016
     14 C         140.9308  142.2107  164.7224 C.ar    1  UNL1        0.0196
     15 C         142.0251  141.5944  163.9021 C.ar    1  UNL1        0.0016
     16 C         142.3826  142.1795  162.5680 C.ar    1  UNL1        0.0001
     17 C         141.6458  143.3809  162.0542 C.ar    1  UNL1        0.0030
     18 C         142.0033  143.9660  160.7201 C.ar    1  UNL1        0.0369
     19 O         141.6242  145.7525  158.8722 O.3     1  UNL1       -0.4612
     20 C         140.8058  145.4146  157.6614 C.3     1  UNL1        0.2820
     21 C         138.9535  143.0553  157.7135 C.1     1  UNL1       -0.0105
     22 C         139.8796  144.2349  157.6874 C.1     1  UNL1       -0.0307
     23 C         138.5650  140.0361  165.2914 C.2     1  UNL1        0.2470
     24 N         137.5826  140.9127  164.5729 N.am    1  UNL1       -0.3252
     25 O         138.6266  138.5693  164.9832 O.2     1  UNL1       -0.2702
     26 H         137.5421  141.8754  164.7751 H       1  UNL1        0.1453
     27 H         136.9783  140.5255  163.8990 H       1  UNL1        0.1453
     28 C         140.9134  141.1333  169.8915 C.3     1  UNL1        0.0879
     29 C         141.8770  140.0066  169.6639 C.3     1  UNL1        0.0245
     30 C         139.9497  142.2602  170.1191 C.3     1  UNL1        0.0245
     31 C         141.2615  141.1363  171.3505 C.3     1  UNL1        0.0245
@<TRIPOS>BOND
     1    21    22    3
     2    22    20    1
     3    20    19    1
     4    19     9    1
     5     9    10   ar
     6    10    11   ar
     7    11    12   ar
     8    12    13   ar
     9    13    14   ar
    10    14     1    1
    11     1     2   ar
    12     2     3   ar
    13     3    28    1
    14    28    29    1
    15    28    30    1
    16    28    31    1
    17     3     4   ar
    18     4     5    1
    19     4     6   ar
    20     6    23    1
    21    23    24   am
    22    23    25    2
    23    14    15   ar
    24    15    16   ar
    25    16    17   ar
    26    17    18   ar
    27    18     9   ar
    28    17    12   ar
    29     6     1   ar
    30     5     7    1
    31     5     8    1
    32    24    26    1
    33    24    27    1
@<TRIPOS>MOLECULE
*****
 31 33 0 0 0
SMALL
GASTEIGER

@<TRIPOS>ATOM
      1 C         139.6962  140.7112  166.0039 C.ar    1  UNL1        0.1079
      2 N         140.6234  141.7392  166.5813 N.ar    1  UNL1       -0.1682
      3 N         140.7011  141.5139  168.0622 N.ar    1  UNL1       -0.2418
      4 C         139.8219  140.3465  168.4002 C.ar    1  UNL1        0.1279
      5 N         139.6022  139.7755  169.7697 N.pl3   1  UNL1       -0.3427
      6 C         139.2008  139.8503  167.1281 C.ar    1  UNL1        0.1031
      7 H         140.0572  140.1724  170.5473 H       1  UNL1        0.1437
      8 H         139.0031  139.0037  169.8910 H       1  UNL1        0.1437
      9 C         139.1741  139.4735  159.2626 C.ar    1  UNL1        0.1400
     10 C         140.4885  138.9474  159.7580 C.ar    1  UNL1        0.0369
     11 C         140.8558  139.0897  161.2054 C.ar    1  UNL1        0.0031
     12 C         139.9087  139.7581  162.1573 C.ar    1  UNL1        0.0002
     13 C         140.2760  139.9004  163.6046 C.ar    1  UNL1        0.0016
     14 C         139.3289  140.5688  164.5566 C.ar    1  UNL1        0.0196
     15 C         138.0144  141.0949  164.0612 C.ar    1  UNL1        0.0016
     16 C         137.6471  140.9526  162.6138 C.ar    1  UNL1        0.0001
     17 C         138.5943  140.2842  161.6619 C.ar    1  UNL1        0.0030
     18 C         138.2270  140.1418  160.2145 C.ar    1  UNL1        0.0369
     19 O         138.8067  139.3311  157.8152 O.3     1  UNL1       -0.4612
     20 C         139.6343  138.4643  156.9132 C.3     1  UNL1        0.2820
     21 C         141.7324  139.6974  155.1589 C.1     1  UNL1       -0.0105
     22 C         140.6833  139.0809  156.0360 C.1     1  UNL1       -0.0307
     23 C         138.2511  138.6962  167.0022 C.2     1  UNL1        0.2470
     24 N         138.3206  137.7947  165.8054 N.am    1  UNL1       -0.3252
     25 O         137.2318  138.4434  168.0733 O.2     1  UNL1       -0.2702
     26 H         138.9896  137.9605  165.1024 H       1  UNL1        0.1453
     27 H         137.6973  137.0372  165.7228 H       1  UNL1        0.1453
     28 C         141.5150  142.3151  169.0345 C.3     1  UNL1        0.0879
     29 C         140.3621  143.2557  169.2246 C.3     1  UNL1        0.0245
     30 C         142.6680  141.3745  168.8445 C.3     1  UNL1        0.0245
     31 C         142.3290  143.1163  170.0068 C.3     1  UNL1        0.0245
@<TRIPOS>BOND
     1    21    22    3
     2    22    20    1
     3    20    19    1
     4    19     9    1
     5     9    10   ar
     6    10    11   ar
     7    11    12   ar
     8    12    13   ar
     9    13    14   ar
    10    14     1    1
    11     1     2   ar
    12     2     3   ar
    13     3    28    1
    14    28    29    1
    15    28    30    1
    16    28    31    1
    17     3     4   ar
    18     4     5    1
    19     4     6   ar
    20     6    23    1
    21    23    24   am
    22    23    25    2
    23    14    15   ar
    24    15    16   ar
    25    16    17   ar
    26    17    18   ar
    27    18     9   ar
    28    17    12   ar
    29     6     1   ar
    30     5     7    1
    31     5     8    1
    32    24    26    1
    33    24    27    1
@<TRIPOS>MOLECULE
*****
 31 33 0 0 0
SMALL
GASTEIGER

@<TRIPOS>ATOM
      1 C         139.5605  141.3118  161.8932 C.ar    1  UNL1        0.1079
      2 N         139.8257  140.3696  160.7566 N.ar    1  UNL1       -0.1682
      3 N         139.7574  141.1532  159.4793 N.ar    1  UNL1       -0.2418
      4 C         139.4500  142.5797  159.8266 C.ar    1  UNL1        0.1279
      5 N         139.2920  143.7098  158.8530 N.pl3   1  UNL1       -0.3427
      6 C         139.3282  142.6778  161.3185 C.ar    1  UNL1        0.1031
      7 H         139.3908  143.5452  157.8875 H       1  UNL1        0.1437
      8 H         139.0894  144.6162  159.1796 H       1  UNL1        0.1437
      9 C         140.7128  139.9052  168.5222 C.ar    1  UNL1        0.1400
     10 C         142.0054  140.3009  167.8724 C.ar    1  UNL1        0.0369
     11 C         142.0335  140.6614  166.4166 C.ar    1  UNL1        0.0031
     12 C         140.7689  140.6261  165.6107 C.ar    1  UNL1        0.0002
     13 C         140.7970  140.9866  164.1549 C.ar    1  UNL1        0.0016
     14 C         139.5324  140.9513  163.3490 C.ar    1  UNL1        0.0196
     15 C         138.2397  140.5556  163.9989 C.ar    1  UNL1        0.0016
     16 C         138.2116  140.1951  165.4546 C.ar    1  UNL1        0.0001
     17 C         139.4763  140.2304  166.2605 C.ar    1  UNL1        0.0030
     18 C         139.4482  139.8699  167.7163 C.ar    1  UNL1        0.0369
     19 O         140.6847  139.5447  169.9780 O.3     1  UNL1       -0.4612
     20 C         140.5383  140.6195  171.0141 C.3     1  UNL1        0.2820
     21 C         140.2388  143.4834  170.1726 C.1     1  UNL1       -0.0105
     22 C         140.3885  142.0514  170.5933 C.1     1  UNL1       -0.0307
     23 C         139.0272  143.9230  162.0986 C.2     1  UNL1        0.2470
     24 N         137.6135  144.2428  162.4847 N.am    1  UNL1       -0.3252
     25 O         140.1399  144.8486  162.4927 O.2     1  UNL1       -0.2702
     26 H         136.8831  143.6354  162.2261 H       1  UNL1        0.1453
     27 H         137.4160  145.0602  162.9968 H       1  UNL1        0.1453
     28 C         139.9608  140.6065  158.0975 C.3     1  UNL1        0.0879
     29 C         141.4349  140.8576  158.2151 C.3     1  UNL1        0.0245
     30 C         138.4866  140.3553  157.9799 C.3     1  UNL1        0.0245
     31 C         140.1641  140.0597  156.7156 C.3     1  UNL1        0.0245
@<TRIPOS>BOND
     1    21    22    3
     2    22    20    1
     3    20    19    1
     4    19     9    1
     5     9    10   ar
     6    10    11   ar
     7    11    12   ar
     8    12    13   ar
     9    13    14   ar
    10    14     1    1
    11     1     2   ar
    12     2     3   ar
    13     3    28    1
    14    28    29    1
    15    28    30    1
    16    28    31    1
    17     3     4   ar
    18     4     5    1
    19     4     6   ar
    20     6    23    1
    21    23    24   am
    22    23    25    2
    23    14    15   ar
    24    15    16   ar
    25    16    17   ar
    26    17    18   ar
    27    18     9   ar
    28    17    12   ar
    29     6     1   ar
    30     5     7    1
    31     5     8    1
    32    24    26    1
    33    24    27    1
