@<TRIPOS>MOLECULE
*****
 30 33 0 0 0
SMALL
GASTEIGER

@<TRIPOS>ATOM
      1 N         138.5354  142.8766  162.3387 N.3     1  UNL1       -0.2700
      2 C         137.5047  142.1878  163.1834 C.3     1  UNL1        0.0897
      3 C         137.4418  140.6895  163.2165 C.3     1  UNL1        0.0897
      4 N         138.4094  139.8800  162.4050 N.3     1  UNL1       -0.2700
      5 C         139.4399  140.5688  161.5604 C.3     1  UNL1        0.0897
      6 C         139.5029  142.0671  161.5272 C.3     1  UNL1        0.0897
      7 C         138.5984  144.3749  162.3055 C.3     1  UNL1        0.0769
      8 C         139.2949  145.1208  163.4047 C.3     1  UNL1        0.0437
      9 C         143.4003  143.8481  164.7373 C.ar    1  UNL1        0.2900
     10 C         142.1919  143.0932  165.2063 C.ar    1  UNL1        0.0749
     11 C         140.8235  143.5174  164.7621 C.ar    1  UNL1        0.0021
     12 C         140.6633  144.6966  163.8489 C.ar    1  UNL1       -0.0204
     13 C         141.8717  145.4515  163.3800 C.ar    1  UNL1        0.0021
     14 C         143.2401  145.0273  163.8242 C.ar    1  UNL1        0.0749
     15 O         145.4516  142.2703  164.5086 O.2     1  UNL1        0.0415
     16 N         144.7687  143.4239  165.1815 N.pl3   1  UNL1        0.0809
     17 O         145.4543  144.1532  166.2987 O.co2   1  UNL1       -0.5760
     18 C         138.3464  138.3816  162.4382 C.3     1  UNL1        0.0769
     19 C         139.0068  137.6278  163.5543 C.3     1  UNL1        0.0437
     20 C         139.2920  138.3142  164.8572 C.ar    1  UNL1       -0.0208
     21 C         140.6586  138.8693  165.1291 C.ar    1  UNL1       -0.0041
     22 C         140.9438  139.5557  166.4320 C.ar    1  UNL1        0.0043
     23 C         139.8623  139.6870  167.4630 C.ar    1  UNL1        0.0536
     24 C         138.4955  139.1319  167.1911 C.ar    1  UNL1        0.0043
     25 C         138.2103  138.4455  165.8883 C.ar    1  UNL1       -0.0041
     26 C         140.1475  140.3734  168.7659 C.ar    1  UNL1        0.2299
     27 N         140.5601  139.7041  170.0433 N.ar    1  UNL1       -0.2065
     28 C         140.7377  140.7667  171.0870 C.ar    1  UNL1        0.1427
     29 C         140.4349  142.0928  170.4547 C.ar    1  UNL1        0.2021
     30 O         140.0701  141.8497  169.0201 O.2     1  UNL1       -0.4314
@<TRIPOS>UNITY_ATOM_ATTR
16 1
charge 1
17 1
charge -1
@<TRIPOS>BOND
     1    15    16    2
     2    16    17    1
     3    16     9    1
     4     9    10   ar
     5    10    11   ar
     6    11    12   ar
     7    12     8    1
     8     8     7    1
     9     7     1    1
    10     1     2    1
    11     2     3    1
    12     3     4    1
    13     4    18    1
    14    18    19    1
    15    19    20    1
    16    20    21   ar
    17    21    22   ar
    18    22    23   ar
    19    23    26    1
    20    26    27   ar
    21    27    28   ar
    22    28    29   ar
    23    29    30   ar
    24    23    24   ar
    25    24    25   ar
    26     4     5    1
    27     5     6    1
    28    12    13   ar
    29    13    14   ar
    30    14     9   ar
    31     6     1    1
    32    25    20   ar
    33    30    26   ar
@<TRIPOS>MOLECULE
*****
 30 33 0 0 0
SMALL
GASTEIGER

@<TRIPOS>ATOM
      1 N         138.2188  140.1999  161.9267 N.3     1  UNL1       -0.2700
      2 C         139.4067  140.7730  161.2121 C.3     1  UNL1        0.0897
      3 C         139.7807  142.2116  161.4132 C.3     1  UNL1        0.0897
      4 N         138.9668  143.0771  162.3290 N.3     1  UNL1       -0.2700
      5 C         137.7790  142.5040  163.0435 C.3     1  UNL1        0.0897
      6 C         137.4050  141.0654  162.8424 C.3     1  UNL1        0.0897
      7 C         137.8448  138.7612  161.7255 C.3     1  UNL1        0.0769
      8 C         138.3993  137.7076  162.6378 C.3     1  UNL1        0.0437
      9 C         142.2470  138.4457  164.8515 C.ar    1  UNL1        0.2900
     10 C         140.9341  138.7678  165.5015 C.ar    1  UNL1        0.0749
     11 C         139.6515  138.5217  164.7636 C.ar    1  UNL1        0.0021
     12 C         139.6818  137.9536  163.3757 C.ar    1  UNL1       -0.0204
     13 C         140.9947  137.6316  162.7257 C.ar    1  UNL1        0.0021
     14 C         142.2773  137.8777  163.4636 C.ar    1  UNL1        0.0749
     15 O         144.7313  139.2062  164.8537 O.2     1  UNL1        0.0415
     16 N         143.5295  138.6918  165.5894 N.pl3   1  UNL1        0.0809
     17 O         143.6104  138.4235  167.0629 O.co2   1  UNL1       -0.5760
     18 C         139.3408  144.5158  162.5301 C.3     1  UNL1        0.0769
     19 C         140.4587  144.8767  163.4629 C.3     1  UNL1        0.0437
     20 C         140.7802  143.9879  164.6276 C.ar    1  UNL1       -0.0208
     21 C         142.0904  143.2593  164.6759 C.ar    1  UNL1       -0.0041
     22 C         142.4119  142.3704  165.8406 C.ar    1  UNL1        0.0043
     23 C         141.4231  142.2101  166.9571 C.ar    1  UNL1        0.0536
     24 C         140.1128  142.9387  166.9089 C.ar    1  UNL1        0.0043
     25 C         139.7913  143.8276  165.7442 C.ar    1  UNL1       -0.0041
     26 C         141.7446  141.3213  168.1218 C.ar    1  UNL1        0.2299
     27 N         142.9909  141.3754  168.9547 N.ar    1  UNL1       -0.2065
     28 C         142.8928  140.3098  170.0058 C.ar    1  UNL1        0.1427
     29 C         141.5858  139.5970  169.8225 C.ar    1  UNL1        0.2021
     30 O         140.8762  140.2221  168.6582 O.2     1  UNL1       -0.4314
@<TRIPOS>UNITY_ATOM_ATTR
16 1
charge 1
17 1
charge -1
@<TRIPOS>BOND
     1    15    16    2
     2    16    17    1
     3    16     9    1
     4     9    10   ar
     5    10    11   ar
     6    11    12   ar
     7    12     8    1
     8     8     7    1
     9     7     1    1
    10     1     2    1
    11     2     3    1
    12     3     4    1
    13     4    18    1
    14    18    19    1
    15    19    20    1
    16    20    21   ar
    17    21    22   ar
    18    22    23   ar
    19    23    26    1
    20    26    27   ar
    21    27    28   ar
    22    28    29   ar
    23    29    30   ar
    24    23    24   ar
    25    24    25   ar
    26     4     5    1
    27     5     6    1
    28    12    13   ar
    29    13    14   ar
    30    14     9   ar
    31     6     1    1
    32    25    20   ar
    33    30    26   ar
@<TRIPOS>MOLECULE
*****
 30 33 0 0 0
SMALL
GASTEIGER

@<TRIPOS>ATOM
      1 N         142.4065  137.9743  162.8541 N.3     1  UNL1       -0.2700
      2 C         142.5578  138.3141  164.3073 C.3     1  UNL1        0.0897
      3 C         141.3533  138.3395  165.2009 C.3     1  UNL1        0.0897
      4 N         139.9975  138.0251  164.6413 N.3     1  UNL1       -0.2700
      5 C         139.8462  137.6854  163.1882 C.3     1  UNL1        0.0897
      6 C         141.0507  137.6600  162.2946 C.3     1  UNL1        0.0897
      7 C         143.6110  137.9489  161.9605 C.3     1  UNL1        0.0769
      8 C         144.1362  139.2253  161.3732 C.3     1  UNL1        0.0437
      9 C         144.2906  142.9593  163.8798 C.ar    1  UNL1        0.2900
     10 C         145.3144  141.8809  164.0767 C.ar    1  UNL1        0.0749
     11 C         145.2630  140.6363  163.2412 C.ar    1  UNL1        0.0021
     12 C         144.1877  140.4699  162.2087 C.ar    1  UNL1       -0.0204
     13 C         143.1638  141.5483  162.0118 C.ar    1  UNL1        0.0021
     14 C         143.2153  142.7930  162.8474 C.ar    1  UNL1        0.0749
     15 O         145.1437  144.2238  165.9830 O.2     1  UNL1        0.0415
     16 N         144.3420  144.2040  164.7154 N.pl3   1  UNL1        0.0809
     17 O         143.5918  145.4289  164.2833 O.co2   1  UNL1       -0.5760
     18 C         138.7930  138.0505  165.5349 C.3     1  UNL1        0.0769
     19 C         138.0413  139.3317  165.7442 C.3     1  UNL1        0.0437
     20 C         138.3736  140.5395  164.9192 C.ar    1  UNL1       -0.0208
     21 C         139.3216  141.5732  165.4508 C.ar    1  UNL1       -0.0041
     22 C         139.6539  142.7811  164.6258 C.ar    1  UNL1        0.0043
     23 C         139.0382  142.9553  163.2692 C.ar    1  UNL1        0.0536
     24 C         138.0901  141.9216  162.7375 C.ar    1  UNL1        0.0043
     25 C         137.7578  140.7137  163.5625 C.ar    1  UNL1       -0.0041
     26 C         139.3705  144.1632  162.4442 C.ar    1  UNL1        0.2299
     27 N         139.9800  144.1543  161.0737 N.ar    1  UNL1       -0.2065
     28 C         140.1378  145.5777  160.6273 C.ar    1  UNL1        0.1427
     29 C         139.6259  146.4662  161.7220 C.ar    1  UNL1        0.2021
     30 O         139.1516  145.5920  162.8449 O.2     1  UNL1       -0.4314
@<TRIPOS>UNITY_ATOM_ATTR
16 1
charge 1
17 1
charge -1
@<TRIPOS>BOND
     1    15    16    2
     2    16    17    1
     3    16     9    1
     4     9    10   ar
     5    10    11   ar
     6    11    12   ar
     7    12     8    1
     8     8     7    1
     9     7     1    1
    10     1     2    1
    11     2     3    1
    12     3     4    1
    13     4    18    1
    14    18    19    1
    15    19    20    1
    16    20    21   ar
    17    21    22   ar
    18    22    23   ar
    19    23    26    1
    20    26    27   ar
    21    27    28   ar
    22    28    29   ar
    23    29    30   ar
    24    23    24   ar
    25    24    25   ar
    26     4     5    1
    27     5     6    1
    28    12    13   ar
    29    13    14   ar
    30    14     9   ar
    31     6     1    1
    32    25    20   ar
    33    30    26   ar
@<TRIPOS>MOLECULE
*****
 30 33 0 0 0
SMALL
GASTEIGER

@<TRIPOS>ATOM
      1 N         143.7672  141.7800  162.0425 N.3     1  UNL1       -0.2700
      2 C         144.5566  140.6741  162.6782 C.3     1  UNL1        0.0897
      3 C         143.9503  139.3103  162.8281 C.3     1  UNL1        0.0897
      4 N         142.5547  139.0524  162.3424 N.3     1  UNL1       -0.2700
      5 C         141.7654  140.1582  161.7068 C.3     1  UNL1        0.0897
      6 C         142.3717  141.5220  161.5568 C.3     1  UNL1        0.0897
      7 C         144.3735  143.1438  161.8925 C.3     1  UNL1        0.0769
      8 C         144.0311  144.2284  162.8705 C.3     1  UNL1        0.0437
      9 C         139.8771  144.4859  164.5818 C.ar    1  UNL1        0.2900
     10 C         140.8969  143.5898  165.2197 C.ar    1  UNL1        0.0749
     11 C         142.2816  143.5040  164.6493 C.ar    1  UNL1        0.0021
     12 C         142.6464  144.3142  163.4409 C.ar    1  UNL1       -0.0204
     13 C         141.6267  145.2103  162.8029 C.ar    1  UNL1        0.0021
     14 C         140.2420  145.2961  163.3733 C.ar    1  UNL1        0.0749
     15 O         138.2001  145.5272  166.2709 O.2     1  UNL1        0.0415
     16 N         138.4925  144.5717  165.1522 N.pl3   1  UNL1        0.0809
     17 O         137.4002  143.7022  164.6039 O.co2   1  UNL1       -0.5760
     18 C         141.9484  137.6885  162.4923 C.3     1  UNL1        0.0769
     19 C         141.3689  137.2661  163.8098 C.3     1  UNL1        0.0437
     20 C         141.2187  138.2657  164.9181 C.ar    1  UNL1       -0.0208
     21 C         142.3592  138.5195  165.8589 C.ar    1  UNL1       -0.0041
     22 C         142.2090  139.5190  166.9672 C.ar    1  UNL1        0.0043
     23 C         140.9184  140.2648  167.1347 C.ar    1  UNL1        0.0536
     24 C         139.7779  140.0111  166.1940 C.ar    1  UNL1        0.0043
     25 C         139.9281  139.0115  165.0857 C.ar    1  UNL1       -0.0041
     26 C         140.7682  141.2644  168.2430 C.ar    1  UNL1        0.2299
     27 N         139.7646  141.2026  169.3561 N.ar    1  UNL1       -0.2065
     28 C         139.9714  142.4012  170.2339 C.ar    1  UNL1        0.1427
     29 C         141.1028  143.2039  169.6633 C.ar    1  UNL1        0.2021
     30 O         141.5953  142.5013  168.4329 O.2     1  UNL1       -0.4314
@<TRIPOS>UNITY_ATOM_ATTR
16 1
charge 1
17 1
charge -1
@<TRIPOS>BOND
     1    15    16    2
     2    16    17    1
     3    16     9    1
     4     9    10   ar
     5    10    11   ar
     6    11    12   ar
     7    12     8    1
     8     8     7    1
     9     7     1    1
    10     1     2    1
    11     2     3    1
    12     3     4    1
    13     4    18    1
    14    18    19    1
    15    19    20    1
    16    20    21   ar
    17    21    22   ar
    18    22    23   ar
    19    23    26    1
    20    26    27   ar
    21    27    28   ar
    22    28    29   ar
    23    29    30   ar
    24    23    24   ar
    25    24    25   ar
    26     4     5    1
    27     5     6    1
    28    12    13   ar
    29    13    14   ar
    30    14     9   ar
    31     6     1    1
    32    25    20   ar
    33    30    26   ar
@<TRIPOS>MOLECULE
*****
 30 33 0 0 0
SMALL
GASTEIGER

@<TRIPOS>ATOM
      1 N         140.3082  144.5590  162.4003 N.3     1  UNL1       -0.2700
      2 C         141.2809  145.3461  163.2276 C.3     1  UNL1        0.0897
      3 C         142.7233  144.9377  163.2802 C.3     1  UNL1        0.0897
      4 N         143.1929  143.7421  162.5055 N.3     1  UNL1       -0.2700
      5 C         142.2202  142.9550  161.6783 C.3     1  UNL1        0.0897
      6 C         140.7779  143.3635  161.6256 C.3     1  UNL1        0.0897
      7 C         138.8658  144.9675  162.3477 C.3     1  UNL1        0.0769
      8 C         137.8817  144.3704  163.3093 C.3     1  UNL1        0.0437
      9 C         138.6367  140.2945  165.0607 C.ar    1  UNL1        0.2900
     10 C         137.7560  140.4415  163.8554 C.ar    1  UNL1        0.0749
     11 C         137.5044  141.8001  163.2716 C.ar    1  UNL1        0.0021
     12 C         138.1334  143.0117  163.8931 C.ar    1  UNL1       -0.0204
     13 C         139.0140  142.8647  165.0984 C.ar    1  UNL1        0.0021
     14 C         139.2657  141.5061  165.6822 C.ar    1  UNL1        0.0749
     15 O         137.9256  138.3564  166.6381 O.2     1  UNL1        0.0415
     16 N         138.8883  138.9358  165.6445 N.pl3   1  UNL1        0.0809
     17 O         140.1027  138.1566  165.2346 O.co2   1  UNL1       -0.5760
     18 C         144.6353  143.3336  162.5581 C.3     1  UNL1        0.0769
     19 C         145.0611  142.1967  163.4392 C.3     1  UNL1        0.0437
     20 C         144.2811  141.8764  164.6797 C.ar    1  UNL1       -0.0208
     21 C         143.6386  140.5299  164.8349 C.ar    1  UNL1       -0.0041
     22 C         142.8586  140.2095  166.0754 C.ar    1  UNL1        0.0043
     23 C         142.7210  141.2357  167.1608 C.ar    1  UNL1        0.0536
     24 C         143.3635  142.5822  167.0056 C.ar    1  UNL1        0.0043
     25 C         144.1436  142.9026  165.7651 C.ar    1  UNL1       -0.0041
     26 C         141.9410  140.9153  168.4013 C.ar    1  UNL1        0.2299
     27 N         142.1820  141.4876  169.7667 N.ar    1  UNL1       -0.2065
     28 C         141.1729  140.8924  170.7035 C.ar    1  UNL1        0.1427
     29 C         140.3083  139.9523  169.9171 C.ar    1  UNL1        0.2021
     30 O         140.7830  139.9664  168.4942 O.2     1  UNL1       -0.4314
@<TRIPOS>UNITY_ATOM_ATTR
16 1
charge 1
17 1
charge -1
@<TRIPOS>BOND
     1    15    16    2
     2    16    17    1
     3    16     9    1
     4     9    10   ar
     5    10    11   ar
     6    11    12   ar
     7    12     8    1
     8     8     7    1
     9     7     1    1
    10     1     2    1
    11     2     3    1
    12     3     4    1
    13     4    18    1
    14    18    19    1
    15    19    20    1
    16    20    21   ar
    17    21    22   ar
    18    22    23   ar
    19    23    26    1
    20    26    27   ar
    21    27    28   ar
    22    28    29   ar
    23    29    30   ar
    24    23    24   ar
    25    24    25   ar
    26     4     5    1
    27     5     6    1
    28    12    13   ar
    29    13    14   ar
    30    14     9   ar
    31     6     1    1
    32    25    20   ar
    33    30    26   ar
@<TRIPOS>MOLECULE
*****
 30 33 0 0 0
SMALL
GASTEIGER

@<TRIPOS>ATOM
      1 N         141.0125  139.2704  160.6614 N.3     1  UNL1       -0.2700
      2 C         142.1995  138.4882  161.1404 C.3     1  UNL1        0.0897
      3 C         143.4479  139.2036  161.5640 C.3     1  UNL1        0.0897
      4 N         143.5094  140.7014  161.5086 N.3     1  UNL1       -0.2700
      5 C         142.3226  141.4836  161.0297 C.3     1  UNL1        0.0897
      6 C         141.0741  140.7681  160.6061 C.3     1  UNL1        0.0897
      7 C         139.7641  138.5550  160.2378 C.3     1  UNL1        0.0769
      8 C         138.4777  138.7926  160.9718 C.3     1  UNL1        0.0437
      9 C         138.4503  138.9572  165.4687 C.ar    1  UNL1        0.2900
     10 C         138.0790  140.1722  164.6715 C.ar    1  UNL1        0.0749
     11 C         138.0881  140.1174  163.1725 C.ar    1  UNL1        0.0021
     12 C         138.4686  138.8474  162.4708 C.ar    1  UNL1       -0.0204
     13 C         138.8400  137.6324  163.2680 C.ar    1  UNL1        0.0021
     14 C         138.8309  137.6872  164.7670 C.ar    1  UNL1        0.0749
     15 O         137.3909  138.2692  167.7390 O.2     1  UNL1        0.0415
     16 N         138.4412  139.0120  166.9677 N.pl3   1  UNL1        0.0809
     17 O         139.4824  139.8097  167.6953 O.co2   1  UNL1       -0.5760
     18 C         144.7579  141.4169  161.9322 C.3     1  UNL1        0.0769
     19 C         145.3419  141.1659  163.2910 C.3     1  UNL1        0.0437
     20 C         144.5068  141.3830  164.5180 C.ar    1  UNL1       -0.0208
     21 C         143.7294  140.2436  165.1074 C.ar    1  UNL1       -0.0041
     22 C         142.8944  140.4607  166.3344 C.ar    1  UNL1        0.0043
     23 C         142.8366  141.8172  166.9719 C.ar    1  UNL1        0.0536
     24 C         143.6140  142.9567  166.3825 C.ar    1  UNL1        0.0043
     25 C         144.4491  142.7396  165.1555 C.ar    1  UNL1       -0.0041
     26 C         142.0016  142.0344  168.1989 C.ar    1  UNL1        0.2299
     27 N         140.7975  142.9231  168.3001 N.ar    1  UNL1       -0.2065
     28 C         140.2757  142.8389  169.7039 C.ar    1  UNL1        0.1427
     29 C         141.1573  141.8981  170.4704 C.ar    1  UNL1        0.2021
     30 O         142.2239  141.4008  169.5403 O.2     1  UNL1       -0.4314
@<TRIPOS>UNITY_ATOM_ATTR
16 1
charge 1
17 1
charge -1
@<TRIPOS>BOND
     1    15    16    2
     2    16    17    1
     3    16     9    1
     4     9    10   ar
     5    10    11   ar
     6    11    12   ar
     7    12     8    1
     8     8     7    1
     9     7     1    1
    10     1     2    1
    11     2     3    1
    12     3     4    1
    13     4    18    1
    14    18    19    1
    15    19    20    1
    16    20    21   ar
    17    21    22   ar
    18    22    23   ar
    19    23    26    1
    20    26    27   ar
    21    27    28   ar
    22    28    29   ar
    23    29    30   ar
    24    23    24   ar
    25    24    25   ar
    26     4     5    1
    27     5     6    1
    28    12    13   ar
    29    13    14   ar
    30    14     9   ar
    31     6     1    1
    32    25    20   ar
    33    30    26   ar
@<TRIPOS>MOLECULE
*****
 30 33 0 0 0
SMALL
GASTEIGER

@<TRIPOS>ATOM
      1 N         141.7249  138.8723  161.1586 N.3     1  UNL1       -0.2700
      2 C         140.6556  138.0035  161.7518 C.3     1  UNL1        0.0897
      3 C         139.3022  138.5776  162.0495 C.3     1  UNL1        0.0897
      4 N         139.0180  140.0205  161.7539 N.3     1  UNL1       -0.2700
      5 C         140.0873  140.8892  161.1607 C.3     1  UNL1        0.0897
      6 C         141.4407  140.3151  160.8630 C.3     1  UNL1        0.0897
      7 C         143.0783  138.2981  160.8609 C.3     1  UNL1        0.0769
      8 C         144.1728  138.3891  161.8826 C.3     1  UNL1        0.0437
      9 C         144.0883  141.6460  164.9867 C.ar    1  UNL1        0.2900
     10 C         144.8032  141.8672  163.6867 C.ar    1  UNL1        0.0749
     11 C         144.8314  140.7816  162.6520 C.ar    1  UNL1        0.0021
     12 C         144.1446  139.4747  162.9173 C.ar    1  UNL1       -0.0204
     13 C         143.4297  139.2535  164.2172 C.ar    1  UNL1        0.0021
     14 C         143.4016  140.3391  165.2519 C.ar    1  UNL1        0.0749
     15 O         144.8228  144.0033  165.7951 O.2     1  UNL1        0.0415
     16 N         144.0602  142.7316  166.0214 N.pl3   1  UNL1        0.0809
     17 O         143.2694  142.5456  167.2823 O.co2   1  UNL1       -0.5760
     18 C         137.6646  140.5947  162.0516 C.3     1  UNL1        0.0769
     19 C         137.4423  141.3764  163.3124 C.3     1  UNL1        0.0437
     20 C         138.2183  141.0388  164.5509 C.ar    1  UNL1       -0.0208
     21 C         137.9588  139.7482  165.2700 C.ar    1  UNL1       -0.0041
     22 C         138.7348  139.4106  166.5084 C.ar    1  UNL1        0.0043
     23 C         139.7703  140.3635  167.0278 C.ar    1  UNL1        0.0536
     24 C         140.0298  141.6541  166.3087 C.ar    1  UNL1        0.0043
     25 C         139.2538  141.9917  165.0702 C.ar    1  UNL1       -0.0041
     26 C         140.5463  140.0258  168.2663 C.ar    1  UNL1        0.2299
     27 N         139.9937  139.9455  169.6585 N.ar    1  UNL1       -0.2065
     28 C         141.1170  139.5792  170.5827 C.ar    1  UNL1        0.1427
     29 C         142.3639  139.4332  169.7616 C.ar    1  UNL1        0.2021
     30 O         142.0111  139.7092  168.3300 O.2     1  UNL1       -0.4314
@<TRIPOS>UNITY_ATOM_ATTR
16 1
charge 1
17 1
charge -1
@<TRIPOS>BOND
     1    15    16    2
     2    16    17    1
     3    16     9    1
     4     9    10   ar
     5    10    11   ar
     6    11    12   ar
     7    12     8    1
     8     8     7    1
     9     7     1    1
    10     1     2    1
    11     2     3    1
    12     3     4    1
    13     4    18    1
    14    18    19    1
    15    19    20    1
    16    20    21   ar
    17    21    22   ar
    18    22    23   ar
    19    23    26    1
    20    26    27   ar
    21    27    28   ar
    22    28    29   ar
    23    29    30   ar
    24    23    24   ar
    25    24    25   ar
    26     4     5    1
    27     5     6    1
    28    12    13   ar
    29    13    14   ar
    30    14     9   ar
    31     6     1    1
    32    25    20   ar
    33    30    26   ar
@<TRIPOS>MOLECULE
*****
 30 33 0 0 0
SMALL
GASTEIGER

@<TRIPOS>ATOM
      1 N         140.6394  140.3110  160.6558 N.3     1  UNL1       -0.2700
      2 C         142.0039  140.2159  161.2715 C.3     1  UNL1        0.0897
      3 C         142.7505  141.4645  161.6370 C.3     1  UNL1        0.0897
      4 N         142.1325  142.8083  161.3867 N.3     1  UNL1       -0.2700
      5 C         140.7681  142.9033  160.7709 C.3     1  UNL1        0.0897
      6 C         140.0215  141.6547  160.4055 C.3     1  UNL1        0.0897
      7 C         139.8928  139.0624  160.2903 C.3     1  UNL1        0.0769
      8 C         138.6218  138.7120  161.0056 C.3     1  UNL1        0.0437
      9 C         138.4262  138.9535  165.4949 C.ar    1  UNL1        0.2900
     10 C         138.8754  137.6857  164.8308 C.ar    1  UNL1        0.0749
     11 C         138.9406  137.6052  163.3344 C.ar    1  UNL1        0.0021
     12 C         138.5566  138.7925  162.5020 C.ar    1  UNL1       -0.0204
     13 C         138.1074  140.0602  163.1661 C.ar    1  UNL1        0.0021
     14 C         138.0422  140.1407  164.6625 C.ar    1  UNL1        0.0749
     15 O         139.3146  139.9197  167.7370 O.2     1  UNL1        0.0415
     16 N         138.3610  139.0340  166.9913 N.pl3   1  UNL1        0.0809
     17 O         137.3422  138.2287  167.7420 O.co2   1  UNL1       -0.5760
     18 C         142.8791  144.0569  161.7521 C.3     1  UNL1        0.0769
     19 C         142.6355  144.7156  163.0776 C.3     1  UNL1        0.0437
     20 C         142.5746  143.8874  164.3267 C.ar    1  UNL1       -0.0208
     21 C         141.2489  143.4328  164.8613 C.ar    1  UNL1       -0.0041
     22 C         141.1879  142.6046  166.1105 C.ar    1  UNL1        0.0043
     23 C         142.4527  142.2310  166.8250 C.ar    1  UNL1        0.0536
     24 C         143.7785  142.6855  166.2904 C.ar    1  UNL1        0.0043
     25 C         143.8395  143.5137  165.0413 C.ar    1  UNL1       -0.0041
     26 C         142.3918  141.4028  168.0741 C.ar    1  UNL1        0.2299
     27 N         141.9725  141.8840  169.4316 N.ar    1  UNL1       -0.2065
     28 C         142.0611  140.7266  170.3816 C.ar    1  UNL1        0.1427
     29 C         142.5351  139.5299  169.6113 C.ar    1  UNL1        0.2021
     30 O         142.7395  139.9478  168.1852 O.2     1  UNL1       -0.4314
@<TRIPOS>UNITY_ATOM_ATTR
16 1
charge 1
17 1
charge -1
@<TRIPOS>BOND
     1    15    16    2
     2    16    17    1
     3    16     9    1
     4     9    10   ar
     5    10    11   ar
     6    11    12   ar
     7    12     8    1
     8     8     7    1
     9     7     1    1
    10     1     2    1
    11     2     3    1
    12     3     4    1
    13     4    18    1
    14    18    19    1
    15    19    20    1
    16    20    21   ar
    17    21    22   ar
    18    22    23   ar
    19    23    26    1
    20    26    27   ar
    21    27    28   ar
    22    28    29   ar
    23    29    30   ar
    24    23    24   ar
    25    24    25   ar
    26     4     5    1
    27     5     6    1
    28    12    13   ar
    29    13    14   ar
    30    14     9   ar
    31     6     1    1
    32    25    20   ar
    33    30    26   ar
@<TRIPOS>MOLECULE
*****
 30 33 0 0 0
SMALL
GASTEIGER

@<TRIPOS>ATOM
      1 N         143.0664  140.0735  160.7564 N.3     1  UNL1       -0.2700
      2 C         142.3163  141.3251  160.4084 C.3     1  UNL1        0.0897
      3 C         142.7669  142.6465  160.9570 C.3     1  UNL1        0.0897
      4 N         143.9676  142.7163  161.8535 N.3     1  UNL1       -0.2700
      5 C         144.7176  141.4647  162.2014 C.3     1  UNL1        0.0897
      6 C         144.2670  140.1434  161.6528 C.3     1  UNL1        0.0897
      7 C         142.6158  138.7521  160.2078 C.3     1  UNL1        0.0769
      8 C         142.3551  137.6039  161.1371 C.3     1  UNL1        0.0437
      9 C         139.3852  138.0509  164.4882 C.ar    1  UNL1        0.2900
     10 C         140.8467  137.9100  164.7950 C.ar    1  UNL1        0.0749
     11 C         141.8366  137.7609  163.6780 C.ar    1  UNL1        0.0021
     12 C         141.3651  137.7529  162.2541 C.ar    1  UNL1       -0.0204
     13 C         139.9037  137.8939  161.9472 C.ar    1  UNL1        0.0021
     14 C         138.9137  138.0429  163.0643 C.ar    1  UNL1        0.0749
     15 O         137.9029  139.5624  165.9943 O.2     1  UNL1        0.0415
     16 N         138.3953  138.2000  165.6052 N.pl3   1  UNL1        0.0809
     17 O         137.8977  136.9866  166.3332 O.co2   1  UNL1       -0.5760
     18 C         144.4182  144.0377  162.4020 C.3     1  UNL1        0.0769
     19 C         143.6568  144.6840  163.5213 C.3     1  UNL1        0.0437
     20 C         143.0662  143.8403  164.6118 C.ar    1  UNL1       -0.0208
     21 C         141.5786  143.6751  164.7099 C.ar    1  UNL1       -0.0041
     22 C         140.9879  142.8315  165.8005 C.ar    1  UNL1        0.0043
     23 C         141.8849  142.1530  166.7930 C.ar    1  UNL1        0.0536
     24 C         143.3726  142.3182  166.6949 C.ar    1  UNL1        0.0043
     25 C         143.9632  143.1618  165.6044 C.ar    1  UNL1       -0.0041
     26 C         141.2942  141.3093  167.8835 C.ar    1  UNL1        0.2299
     27 N         142.0606  140.4648  168.8579 N.ar    1  UNL1       -0.2065
     28 C         141.0735  139.7955  169.7678 C.ar    1  UNL1        0.1427
     29 C         139.6971  140.2264  169.3557 C.ar    1  UNL1        0.2021
     30 O         139.8335  141.1620  168.1912 O.2     1  UNL1       -0.4314
@<TRIPOS>UNITY_ATOM_ATTR
16 1
charge 1
17 1
charge -1
@<TRIPOS>BOND
     1    15    16    2
     2    16    17    1
     3    16     9    1
     4     9    10   ar
     5    10    11   ar
     6    11    12   ar
     7    12     8    1
     8     8     7    1
     9     7     1    1
    10     1     2    1
    11     2     3    1
    12     3     4    1
    13     4    18    1
    14    18    19    1
    15    19    20    1
    16    20    21   ar
    17    21    22   ar
    18    22    23   ar
    19    23    26    1
    20    26    27   ar
    21    27    28   ar
    22    28    29   ar
    23    29    30   ar
    24    23    24   ar
    25    24    25   ar
    26     4     5    1
    27     5     6    1
    28    12    13   ar
    29    13    14   ar
    30    14     9   ar
    31     6     1    1
    32    25    20   ar
    33    30    26   ar
