@<TRIPOS>MOLECULE
*****
 43 49 0 0 0
SMALL
GASTEIGER

@<TRIPOS>ATOM
      1 C         140.5168  141.0674  163.1014 C.3     1  UNL1        0.0235
      2 C         141.3264  141.9105  164.0414 C.3     1  UNL1        0.0257
      3 C         141.1962  141.7178  165.5233 C.3     1  UNL1        0.0940
      4 N         140.2564  140.6818  166.0651 N.am    1  UNL1       -0.2761
      5 C         140.1262  140.4891  167.5470 C.2     1  UNL1        0.2490
      6 O         139.1864  139.4532  168.0888 O.2     1  UNL1       -0.2699
      7 C         139.4468  139.8387  165.1251 C.3     1  UNL1        0.0940
      8 C         139.5770  140.0314  163.6433 C.3     1  UNL1        0.0257
      9 C         139.9673  140.5176  161.8184 C.ar    1  UNL1       -0.0226
     10 C         140.3550  139.1413  161.3652 C.ar    1  UNL1       -0.0043
     11 C         139.8055  138.5915  160.0823 C.ar    1  UNL1       -0.0003
     12 C         138.8683  139.4182  159.2526 C.ar    1  UNL1       -0.0000
     13 C         138.4806  140.7945  159.7059 C.ar    1  UNL1       -0.0003
     14 C         139.0302  141.3442  160.9888 C.ar    1  UNL1       -0.0043
     15 C         140.9358  141.3323  168.4869 C.ar    1  UNL1        0.0547
     16 C         140.4498  142.6962  168.8790 C.ar    1  UNL1        0.0046
     17 C         141.2595  143.5393  169.8189 C.ar    1  UNL1        0.0001
     18 C         142.5551  143.0186  170.3668 C.ar    1  UNL1        0.0000
     19 C         143.0411  141.6548  169.9747 C.ar    1  UNL1        0.0013
     20 C         142.2315  140.8116  169.0348 C.ar    1  UNL1        0.0184
     21 C         142.7175  139.4478  168.6427 C.2     1  UNL1        0.0730
     22 O         142.9018  138.3880  169.6881 O.co2   1  UNL1       -0.5446
     23 O         143.0192  139.1437  167.2052 O.co2   1  UNL1       -0.5446
     24 C         141.2658  141.9123  162.1140 C.3     1  UNL1        0.0215
     25 C         142.7284  141.6747  161.8805 C.3     1  UNL1        0.0723
     26 C         142.8271  141.6661  162.0023 C.3     1  UNL1        0.0893
     27 C         142.7461  140.1749  161.8605 C.3     1  UNL1        0.0386
     28 C         143.5202  139.2898  162.7919 C.3     1  UNL1        0.0594
     29 C         144.4234  138.8222  163.8944 C.3     1  UNL1        0.0174
     30 C         144.9639  140.0330  164.5958 C.3     1  UNL1        0.0174
     31 C         144.3947  141.2489  163.9267 C.3     1  UNL1        0.0594
     32 C         143.6822  142.2720  163.0753 C.3     1  UNL1        0.0386
     33 N         143.5024  140.7896  162.8118 N.3     1  UNL1       -0.2751
     34 C         142.5161  141.0633  159.1325 C.3     1  UNL1        0.0718
     35 C         141.8459  142.3199  159.6033 C.ar    1  UNL1        0.1207
     36 N         141.0150  143.4487  159.0691 N.ar    1  UNL1       -0.2309
     37 C         140.7086  144.3775  160.2064 C.ar    1  UNL1        0.0983
     38 C         139.9283  145.6566  160.2752 C.ar    1  UNL1        0.0206
     39 C         139.7895  146.3811  161.5813 C.ar    1  UNL1        0.0016
     40 C         140.4310  145.8263  162.8185 C.ar    1  UNL1        0.0016
     41 C         141.2113  144.5472  162.7497 C.ar    1  UNL1        0.0188
     42 C         141.3501  143.8227  161.4436 C.ar    1  UNL1        0.0785
     43 N         142.0530  142.5511  161.0709 N.ar    1  UNL1       -0.3167
@<TRIPOS>UNITY_ATOM_ATTR
22 1
charge -1
@<TRIPOS>BOND
     1    34    35    1
     2    35    36   ar
     3    36    37   ar
     4    37    38   ar
     5    38    39   ar
     6    39    40   ar
     7    40    41   ar
     8    41    42   ar
     9    42    43   ar
    10    43    26    1
    11    26    27    1
    12    27    28    1
    13    28    29    1
    14    29    30    1
    15    30    31    1
    16    31    32    1
    17    31    33    1
    18    33    25    1
    19    25    24    1
    20    24     1    1
    21     1     9    1
    22     9    10   ar
    23    10    11   ar
    24    11    12   ar
    25    12    13   ar
    26    13    14   ar
    27     1     2    1
    28     2     3    1
    29     3     4    1
    30     4     5   am
    31     5     6    2
    32     5    15    1
    33    15    16   ar
    34    16    17   ar
    35    17    18   ar
    36    18    19   ar
    37    19    20   ar
    38    20    21    1
    39    21    22   ar
    40    21    23   ar
    41     4     7    1
    42     7     8    1
    43    43    35   ar
    44    32    26    1
    45     8     1    1
    46    42    37   ar
    47    33    28    1
    48    14     9   ar
    49    20    15   ar
@<TRIPOS>MOLECULE
*****
 43 49 0 0 0
SMALL
GASTEIGER

@<TRIPOS>ATOM
      1 C         139.8318  140.5158  163.8897 C.3     1  UNL1        0.0235
      2 C         140.7481  141.4470  164.6267 C.3     1  UNL1        0.0257
      3 C         140.7908  141.4266  166.1260 C.3     1  UNL1        0.0940
      4 N         139.9171  140.4750  166.8883 N.am    1  UNL1       -0.2761
      5 C         139.9598  140.4547  168.3875 C.2     1  UNL1        0.2490
      6 O         139.0862  139.5031  169.1499 O.2     1  UNL1       -0.2699
      7 C         139.0008  139.5438  166.1513 C.3     1  UNL1        0.0940
      8 C         138.9581  139.5642  164.6521 C.3     1  UNL1        0.0257
      9 C         139.1347  139.8326  162.7506 C.ar    1  UNL1       -0.0226
     10 C         139.8449  138.7697  161.9659 C.ar    1  UNL1       -0.0043
     11 C         139.1478  138.0865  160.8268 C.ar    1  UNL1       -0.0003
     12 C         137.7405  138.4663  160.4726 C.ar    1  UNL1       -0.0000
     13 C         137.0304  139.5292  161.2575 C.ar    1  UNL1       -0.0003
     14 C         137.7275  140.2123  162.3965 C.ar    1  UNL1       -0.0043
     15 C         140.8762  141.3859  169.1244 C.ar    1  UNL1        0.0547
     16 C         140.4055  142.7595  169.5008 C.ar    1  UNL1        0.0046
     17 C         141.3219  143.6907  170.2376 C.ar    1  UNL1        0.0001
     18 C         142.7092  143.2483  170.5981 C.ar    1  UNL1        0.0000
     19 C         143.1799  141.8747  170.2218 C.ar    1  UNL1        0.0013
     20 C         142.2634  140.9435  169.4849 C.ar    1  UNL1        0.0184
     21 C         142.7342  139.5700  169.1085 C.2     1  UNL1        0.0730
     22 O         142.8313  138.4979  170.1532 O.co2   1  UNL1       -0.5446
     23 O         143.1079  139.2684  167.6875 O.co2   1  UNL1       -0.5446
     24 C         140.4633  141.2301  162.7319 C.3     1  UNL1        0.0215
     25 C         140.1199  142.6643  162.4577 C.3     1  UNL1        0.0723
     26 C         140.1365  142.7689  162.5735 C.3     1  UNL1        0.0893
     27 C         138.6486  142.6926  162.7486 C.3     1  UNL1        0.0386
     28 C         137.9745  143.5175  163.8046 C.3     1  UNL1        0.0594
     29 C         137.7439  144.4764  164.9348 C.3     1  UNL1        0.0174
     30 C         139.0726  145.0408  165.3422 C.3     1  UNL1        0.0174
     31 C         140.1244  144.4306  164.4639 C.3     1  UNL1        0.0594
     32 C         140.9500  143.6700  163.4544 C.3     1  UNL1        0.0386
     33 N         139.4457  143.4892  163.5135 N.3     1  UNL1       -0.2751
     34 C         139.0004  142.4076  159.8764 C.3     1  UNL1        0.0718
     35 C         140.3040  141.7087  160.1255 C.ar    1  UNL1        0.1207
     36 N         141.2901  140.8288  159.4159 N.ar    1  UNL1       -0.2309
     37 C         142.4061  140.5203  160.3695 C.ar    1  UNL1        0.0983
     38 C         143.6538  139.7008  160.2229 C.ar    1  UNL1        0.0206
     39 C         144.6052  139.5705  161.3751 C.ar    1  UNL1        0.0016
     40 C         144.3089  140.2596  162.6741 C.ar    1  UNL1        0.0016
     41 C         143.0612  141.0791  162.8207 C.ar    1  UNL1        0.0188
     42 C         142.1098  141.2094  161.6684 C.ar    1  UNL1        0.0785
     43 N         140.8107  141.9440  161.5176 N.ar    1  UNL1       -0.3167
@<TRIPOS>UNITY_ATOM_ATTR
22 1
charge -1
@<TRIPOS>BOND
     1    34    35    1
     2    35    36   ar
     3    36    37   ar
     4    37    38   ar
     5    38    39   ar
     6    39    40   ar
     7    40    41   ar
     8    41    42   ar
     9    42    43   ar
    10    43    26    1
    11    26    27    1
    12    27    28    1
    13    28    29    1
    14    29    30    1
    15    30    31    1
    16    31    32    1
    17    31    33    1
    18    33    25    1
    19    25    24    1
    20    24     1    1
    21     1     9    1
    22     9    10   ar
    23    10    11   ar
    24    11    12   ar
    25    12    13   ar
    26    13    14   ar
    27     1     2    1
    28     2     3    1
    29     3     4    1
    30     4     5   am
    31     5     6    2
    32     5    15    1
    33    15    16   ar
    34    16    17   ar
    35    17    18   ar
    36    18    19   ar
    37    19    20   ar
    38    20    21    1
    39    21    22   ar
    40    21    23   ar
    41     4     7    1
    42     7     8    1
    43    43    35   ar
    44    32    26    1
    45     8     1    1
    46    42    37   ar
    47    33    28    1
    48    14     9   ar
    49    20    15   ar
@<TRIPOS>MOLECULE
*****
 43 49 0 0 0
SMALL
GASTEIGER

@<TRIPOS>ATOM
      1 C         140.5469  141.6155  165.1744 C.3     1  UNL1        0.0235
      2 C         141.5154  142.0092  164.0988 C.3     1  UNL1        0.0257
      3 C         141.0080  142.4655  162.7630 C.3     1  UNL1        0.0940
      4 N         139.5320  142.5281  162.5028 N.am    1  UNL1       -0.2761
      5 C         139.0246  142.9843  161.1670 C.2     1  UNL1        0.2490
      6 O         137.5487  143.0469  160.9068 O.2     1  UNL1       -0.2699
      7 C         138.5635  142.1344  163.5784 C.3     1  UNL1        0.0940
      8 C         139.0709  141.6781  164.9142 C.3     1  UNL1        0.0257
      9 C         140.0283  141.1431  166.5004 C.ar    1  UNL1       -0.0226
     10 C         139.3201  139.8248  166.6022 C.ar    1  UNL1       -0.0043
     11 C         138.8016  139.3524  167.9281 C.ar    1  UNL1       -0.0003
     12 C         138.9913  140.1984  169.1522 C.ar    1  UNL1       -0.0000
     13 C         139.6995  141.5168  169.0503 C.ar    1  UNL1       -0.0003
     14 C         140.2180  141.9891  167.7243 C.ar    1  UNL1       -0.0043
     15 C         139.9932  143.3780  160.0914 C.ar    1  UNL1        0.0547
     16 C         140.3861  142.3867  159.0364 C.ar    1  UNL1        0.0046
     17 C         141.3547  142.7805  157.9609 C.ar    1  UNL1        0.0001
     18 C         141.9304  144.1655  157.9403 C.ar    1  UNL1        0.0000
     19 C         141.5374  145.1568  158.9953 C.ar    1  UNL1        0.0013
     20 C         140.5689  144.7630  160.0709 C.ar    1  UNL1        0.0184
     21 C         140.1759  145.7542  161.1259 C.2     1  UNL1        0.0730
     22 O         139.0333  146.6951  160.8827 O.co2   1  UNL1       -0.5446
     23 O         140.9257  145.8046  162.4241 O.co2   1  UNL1       -0.5446
     24 C         141.8427  141.3889  165.8951 C.3     1  UNL1        0.0215
     25 C         142.7472  140.2675  165.4772 C.3     1  UNL1        0.0723
     26 C         142.7814  140.2442  165.3258 C.3     1  UNL1        0.0893
     27 C         141.7236  139.1806  165.3323 C.3     1  UNL1        0.0386
     28 C         141.4303  138.4069  164.0812 C.3     1  UNL1        0.0594
     29 C         141.4764  137.9125  162.6658 C.3     1  UNL1        0.0174
     30 C         142.5284  138.6938  161.9359 C.3     1  UNL1        0.0174
     31 C         143.1325  139.6711  162.9002 C.3     1  UNL1        0.0594
     32 C         143.5458  140.5339  164.0682 C.3     1  UNL1        0.0386
     33 N         142.4538  139.4938  164.2262 N.3     1  UNL1       -0.2751
     34 C         143.7599  143.0256  165.2787 C.3     1  UNL1        0.0718
     35 C         143.5734  142.4311  166.6432 C.ar    1  UNL1        0.1207
     36 N         143.7277  142.8008  168.0886 N.ar    1  UNL1       -0.2309
     37 C         143.3245  141.6162  168.9158 C.ar    1  UNL1        0.0983
     38 C         143.2726  141.3986  170.3990 C.ar    1  UNL1        0.0206
     39 C         142.8172  140.0790  170.9478 C.ar    1  UNL1        0.0016
     40 C         142.4136  138.9771  170.0135 C.ar    1  UNL1        0.0016
     41 C         142.4655  139.1948  168.5303 C.ar    1  UNL1        0.0188
     42 C         142.9209  140.5143  167.9815 C.ar    1  UNL1        0.0785
     43 N         143.0747  141.0180  166.5769 N.ar    1  UNL1       -0.3167
@<TRIPOS>UNITY_ATOM_ATTR
22 1
charge -1
@<TRIPOS>BOND
     1    34    35    1
     2    35    36   ar
     3    36    37   ar
     4    37    38   ar
     5    38    39   ar
     6    39    40   ar
     7    40    41   ar
     8    41    42   ar
     9    42    43   ar
    10    43    26    1
    11    26    27    1
    12    27    28    1
    13    28    29    1
    14    29    30    1
    15    30    31    1
    16    31    32    1
    17    31    33    1
    18    33    25    1
    19    25    24    1
    20    24     1    1
    21     1     9    1
    22     9    10   ar
    23    10    11   ar
    24    11    12   ar
    25    12    13   ar
    26    13    14   ar
    27     1     2    1
    28     2     3    1
    29     3     4    1
    30     4     5   am
    31     5     6    2
    32     5    15    1
    33    15    16   ar
    34    16    17   ar
    35    17    18   ar
    36    18    19   ar
    37    19    20   ar
    38    20    21    1
    39    21    22   ar
    40    21    23   ar
    41     4     7    1
    42     7     8    1
    43    43    35   ar
    44    32    26    1
    45     8     1    1
    46    42    37   ar
    47    33    28    1
    48    14     9   ar
    49    20    15   ar
@<TRIPOS>MOLECULE
*****
 43 49 0 0 0
SMALL
GASTEIGER

@<TRIPOS>ATOM
      1 C         141.6628  140.7935  164.1540 C.3     1  UNL1        0.0235
      2 C         140.6544  141.5678  164.9500 C.3     1  UNL1        0.0257
      3 C         140.8628  141.7810  166.4201 C.3     1  UNL1        0.0940
      4 N         142.0796  141.2199  167.0942 N.am    1  UNL1       -0.2761
      5 C         142.2880  141.4331  168.5643 C.2     1  UNL1        0.2490
      6 O         143.5049  140.8719  169.2384 O.2     1  UNL1       -0.2699
      7 C         143.0880  140.4456  166.2982 C.3     1  UNL1        0.0940
      8 C         142.8797  140.2324  164.8282 C.3     1  UNL1        0.0257
      9 C         142.3291  140.1346  162.9826 C.ar    1  UNL1       -0.0226
     10 C         142.8778  140.9701  161.8643 C.ar    1  UNL1       -0.0043
     11 C         143.5440  140.3111  160.6929 C.ar    1  UNL1       -0.0003
     12 C         143.6615  138.8167  160.6401 C.ar    1  UNL1       -0.0000
     13 C         143.1127  137.9811  161.7585 C.ar    1  UNL1       -0.0003
     14 C         142.4465  138.6402  162.9298 C.ar    1  UNL1       -0.0043
     15 C         141.2796  142.2074  169.3602 C.ar    1  UNL1        0.0547
     16 C         141.4393  143.6886  169.5351 C.ar    1  UNL1        0.0046
     17 C         140.4308  144.4628  170.3310 C.ar    1  UNL1        0.0001
     18 C         139.2626  143.7559  170.9520 C.ar    1  UNL1        0.0000
     19 C         139.1029  142.2747  170.7770 C.ar    1  UNL1        0.0013
     20 C         140.1114  141.5005  169.9811 C.ar    1  UNL1        0.0184
     21 C         139.9517  140.0193  169.8062 C.2     1  UNL1        0.0730
     22 O         140.9697  139.0816  170.3844 O.co2   1  UNL1       -0.5446
     23 O         138.7739  139.4757  169.0530 O.co2   1  UNL1       -0.5446
     24 C         140.6774  141.1258  163.0731 C.3     1  UNL1        0.0215
     25 C         139.3390  140.4491  163.0445 C.3     1  UNL1        0.0723
     26 C         139.2613  140.4255  163.1788 C.3     1  UNL1        0.0893
     27 C         139.7548  139.0100  163.1224 C.3     1  UNL1        0.0386
     28 C         139.3805  138.0416  164.2051 C.3     1  UNL1        0.0594
     29 C         138.7818  137.4529  165.4481 C.3     1  UNL1        0.0174
     30 C         137.9960  138.5282  166.1383 C.3     1  UNL1        0.0174
     31 C         138.1091  139.7815  165.3219 C.3     1  UNL1        0.0594
     32 C         138.3937  140.8724  164.3178 C.3     1  UNL1        0.0386
     33 N         138.9648  139.4808  164.1271 N.3     1  UNL1       -0.2751
     34 C         139.8225  139.5732  160.4122 C.3     1  UNL1        0.0718
     35 C         139.9362  141.0468  160.6681 C.ar    1  UNL1        0.1207
     36 N         140.2612  142.3178  159.9409 N.ar    1  UNL1       -0.2309
     37 C         140.1614  143.4503  160.9193 C.ar    1  UNL1        0.0983
     38 C         140.3728  144.9278  160.7695 C.ar    1  UNL1        0.0206
     39 C         140.1973  145.8342  161.9517 C.ar    1  UNL1        0.0016
     40 C         139.8106  145.2631  163.2837 C.ar    1  UNL1        0.0016
     41 C         139.5993  143.7857  163.4336 C.ar    1  UNL1        0.0188
     42 C         139.7747  142.8793  162.2514 C.ar    1  UNL1        0.0785
     43 N         139.6355  141.3939  162.0961 N.ar    1  UNL1       -0.3167
@<TRIPOS>UNITY_ATOM_ATTR
22 1
charge -1
@<TRIPOS>BOND
     1    34    35    1
     2    35    36   ar
     3    36    37   ar
     4    37    38   ar
     5    38    39   ar
     6    39    40   ar
     7    40    41   ar
     8    41    42   ar
     9    42    43   ar
    10    43    26    1
    11    26    27    1
    12    27    28    1
    13    28    29    1
    14    29    30    1
    15    30    31    1
    16    31    32    1
    17    31    33    1
    18    33    25    1
    19    25    24    1
    20    24     1    1
    21     1     9    1
    22     9    10   ar
    23    10    11   ar
    24    11    12   ar
    25    12    13   ar
    26    13    14   ar
    27     1     2    1
    28     2     3    1
    29     3     4    1
    30     4     5   am
    31     5     6    2
    32     5    15    1
    33    15    16   ar
    34    16    17   ar
    35    17    18   ar
    36    18    19   ar
    37    19    20   ar
    38    20    21    1
    39    21    22   ar
    40    21    23   ar
    41     4     7    1
    42     7     8    1
    43    43    35   ar
    44    32    26    1
    45     8     1    1
    46    42    37   ar
    47    33    28    1
    48    14     9   ar
    49    20    15   ar
@<TRIPOS>MOLECULE
*****
 43 49 0 0 0
SMALL
GASTEIGER

@<TRIPOS>ATOM
      1 C         141.2087  141.6423  161.5584 C.3     1  UNL1        0.0235
      2 C         141.3066  142.1938  162.9499 C.3     1  UNL1        0.0257
      3 C         141.2452  141.2690  164.1293 C.3     1  UNL1        0.0940
      4 N         141.0859  139.7926  163.9172 N.am    1  UNL1       -0.2761
      5 C         141.0245  138.8678  165.0967 C.2     1  UNL1        0.2490
      6 O         140.8652  137.3915  164.8846 O.2     1  UNL1       -0.2699
      7 C         140.9880  139.2411  162.5258 C.3     1  UNL1        0.0940
      8 C         141.0494  140.1658  161.3464 C.3     1  UNL1        0.0257
      9 C         141.1603  141.5980  160.0598 C.ar    1  UNL1       -0.0226
     10 C         142.3279  141.0596  159.2873 C.ar    1  UNL1       -0.0043
     11 C         142.2795  141.0153  157.7887 C.ar    1  UNL1       -0.0003
     12 C         141.0635  141.5096  157.0627 C.ar    1  UNL1       -0.0000
     13 C         139.8959  142.0481  157.8353 C.ar    1  UNL1       -0.0003
     14 C         139.9444  142.0923  159.3339 C.ar    1  UNL1       -0.0043
     15 C         141.1223  139.4195  166.4881 C.ar    1  UNL1        0.0547
     16 C         142.4664  139.7143  167.0853 C.ar    1  UNL1        0.0046
     17 C         142.5641  140.2659  168.4767 C.ar    1  UNL1        0.0001
     18 C         141.3178  140.5227  169.2710 C.ar    1  UNL1        0.0000
     19 C         139.9738  140.2279  168.6738 C.ar    1  UNL1        0.0013
     20 C         139.8760  139.6763  167.2824 C.ar    1  UNL1        0.0184
     21 C         138.5320  139.3815  166.6852 C.2     1  UNL1        0.0730
     22 O         138.0502  140.1636  165.4994 O.co2   1  UNL1       -0.5446
     23 O         137.6697  138.3045  167.2739 O.co2   1  UNL1       -0.5446
     24 C         141.3512  143.1032  161.2501 C.3     1  UNL1        0.0215
     25 C         142.6339  143.8146  161.5644 C.3     1  UNL1        0.0723
     26 C         142.7068  143.7952  161.7021 C.3     1  UNL1        0.0893
     27 C         143.5826  142.7952  161.0070 C.3     1  UNL1        0.0386
     28 C         144.6649  142.0888  161.7683 C.3     1  UNL1        0.0594
     29 C         145.5749  141.6477  162.8763 C.3     1  UNL1        0.0174
     30 C         145.1885  142.3945  164.1184 C.3     1  UNL1        0.0174
     31 C         144.0397  143.2972  163.7782 C.3     1  UNL1        0.0594
     32 C         142.9134  144.0887  163.1584 C.3     1  UNL1        0.0386
     33 N         143.7161  143.1082  162.3257 N.3     1  UNL1       -0.2751
     34 C         140.2545  144.8005  162.9947 C.3     1  UNL1        0.0718
     35 C         140.3500  145.0428  161.5175 C.ar    1  UNL1        0.1207
     36 N         139.5646  145.6664  160.4021 N.ar    1  UNL1       -0.2309
     37 C         140.3536  145.5106  159.1360 C.ar    1  UNL1        0.0983
     38 C         140.0773  145.9313  157.7230 C.ar    1  UNL1        0.0206
     39 C         141.0741  145.6321  156.6428 C.ar    1  UNL1        0.0016
     40 C         142.3473  144.9121  156.9757 C.ar    1  UNL1        0.0016
     41 C         142.6236  144.4914  158.3887 C.ar    1  UNL1        0.0188
     42 C         141.6268  144.7907  159.4688 C.ar    1  UNL1        0.0785
     43 N         141.6245  144.5016  160.9407 N.ar    1  UNL1       -0.3167
@<TRIPOS>UNITY_ATOM_ATTR
22 1
charge -1
@<TRIPOS>BOND
     1    34    35    1
     2    35    36   ar
     3    36    37   ar
     4    37    38   ar
     5    38    39   ar
     6    39    40   ar
     7    40    41   ar
     8    41    42   ar
     9    42    43   ar
    10    43    26    1
    11    26    27    1
    12    27    28    1
    13    28    29    1
    14    29    30    1
    15    30    31    1
    16    31    32    1
    17    31    33    1
    18    33    25    1
    19    25    24    1
    20    24     1    1
    21     1     9    1
    22     9    10   ar
    23    10    11   ar
    24    11    12   ar
    25    12    13   ar
    26    13    14   ar
    27     1     2    1
    28     2     3    1
    29     3     4    1
    30     4     5   am
    31     5     6    2
    32     5    15    1
    33    15    16   ar
    34    16    17   ar
    35    17    18   ar
    36    18    19   ar
    37    19    20   ar
    38    20    21    1
    39    21    22   ar
    40    21    23   ar
    41     4     7    1
    42     7     8    1
    43    43    35   ar
    44    32    26    1
    45     8     1    1
    46    42    37   ar
    47    33    28    1
    48    14     9   ar
    49    20    15   ar
@<TRIPOS>MOLECULE
*****
 43 49 0 0 0
SMALL
GASTEIGER

@<TRIPOS>ATOM
      1 C         140.4038  141.7042  163.1344 C.3     1  UNL1        0.0235
      2 C         141.2290  142.4714  164.1247 C.3     1  UNL1        0.0257
      3 C         141.1487  142.1391  165.5852 C.3     1  UNL1        0.0940
      4 N         140.2433  141.0395  166.0555 N.am    1  UNL1       -0.2761
      5 C         140.1631  140.7071  167.5160 C.2     1  UNL1        0.2490
      6 O         139.2577  139.6075  167.9863 O.2     1  UNL1       -0.2699
      7 C         139.4182  140.2722  165.0652 C.3     1  UNL1        0.0940
      8 C         139.4985  140.6046  163.6048 C.3     1  UNL1        0.0257
      9 C         139.8231  141.2660  161.8226 C.ar    1  UNL1       -0.0226
     10 C         138.8592  142.1553  161.0947 C.ar    1  UNL1       -0.0043
     11 C         138.2784  141.7170  159.7829 C.ar    1  UNL1       -0.0003
     12 C         138.6616  140.3894  159.1992 C.ar    1  UNL1       -0.0000
     13 C         139.6255  139.5001  159.9272 C.ar    1  UNL1       -0.0003
     14 C         140.2062  139.9384  161.2390 C.ar    1  UNL1       -0.0043
     15 C         140.9882  141.4743  168.5062 C.ar    1  UNL1        0.0547
     16 C         140.5211  142.8137  168.9939 C.ar    1  UNL1        0.0046
     17 C         141.3463  143.5809  169.9841 C.ar    1  UNL1        0.0001
     18 C         142.6387  143.0087  170.4865 C.ar    1  UNL1        0.0000
     19 C         143.1058  141.6694  169.9988 C.ar    1  UNL1        0.0013
     20 C         142.2806  140.9022  169.0086 C.ar    1  UNL1        0.0184
     21 C         142.7478  139.5628  168.5209 C.2     1  UNL1        0.0730
     22 O         143.0129  139.3471  167.0604 O.co2   1  UNL1       -0.5446
     23 O         142.9498  138.4391  169.4938 O.co2   1  UNL1       -0.5446
     24 C         141.1075  142.6516  162.2086 C.3     1  UNL1        0.0215
     25 C         142.5853  142.5235  161.9856 C.3     1  UNL1        0.0723
     26 C         142.6850  142.4974  162.1040 C.3     1  UNL1        0.0893
     27 C         142.6212  141.0456  161.7319 C.3     1  UNL1        0.0386
     28 C         143.4125  140.0364  162.5100 C.3     1  UNL1        0.0594
     29 C         144.3290  139.4146  163.5216 C.3     1  UNL1        0.0174
     30 C         144.8596  140.5083  164.4004 C.3     1  UNL1        0.0174
     31 C         144.2710  141.8060  163.9320 C.3     1  UNL1        0.0594
     32 C         143.5402  142.9399  163.2541 C.3     1  UNL1        0.0386
     33 N         143.3766  141.5144  162.7636 N.3     1  UNL1       -0.2751
     34 C         141.7045  145.0085  163.2991 C.3     1  UNL1        0.0718
     35 C         141.3586  144.8045  161.8539 C.ar    1  UNL1        0.1207
     36 N         140.6327  145.4950  160.7374 N.ar    1  UNL1       -0.2309
     37 C         140.7193  144.6238  159.5195 C.ar    1  UNL1        0.0983
     38 C         140.1892  144.7907  158.1263 C.ar    1  UNL1        0.0206
     39 C         140.4384  143.7287  157.0967 C.ar    1  UNL1        0.0016
     40 C         141.2178  142.4997  157.4604 C.ar    1  UNL1        0.0016
     41 C         141.7479  142.3328  158.8536 C.ar    1  UNL1        0.0188
     42 C         141.4987  143.3948  159.8831 C.ar    1  UNL1        0.0785
     43 N         141.8937  143.5065  161.3259 N.ar    1  UNL1       -0.3167
@<TRIPOS>UNITY_ATOM_ATTR
22 1
charge -1
@<TRIPOS>BOND
     1    34    35    1
     2    35    36   ar
     3    36    37   ar
     4    37    38   ar
     5    38    39   ar
     6    39    40   ar
     7    40    41   ar
     8    41    42   ar
     9    42    43   ar
    10    43    26    1
    11    26    27    1
    12    27    28    1
    13    28    29    1
    14    29    30    1
    15    30    31    1
    16    31    32    1
    17    31    33    1
    18    33    25    1
    19    25    24    1
    20    24     1    1
    21     1     9    1
    22     9    10   ar
    23    10    11   ar
    24    11    12   ar
    25    12    13   ar
    26    13    14   ar
    27     1     2    1
    28     2     3    1
    29     3     4    1
    30     4     5   am
    31     5     6    2
    32     5    15    1
    33    15    16   ar
    34    16    17   ar
    35    17    18   ar
    36    18    19   ar
    37    19    20   ar
    38    20    21    1
    39    21    22   ar
    40    21    23   ar
    41     4     7    1
    42     7     8    1
    43    43    35   ar
    44    32    26    1
    45     8     1    1
    46    42    37   ar
    47    33    28    1
    48    14     9   ar
    49    20    15   ar
@<TRIPOS>MOLECULE
*****
 43 49 0 0 0
SMALL
GASTEIGER

@<TRIPOS>ATOM
      1 C         139.9081  139.9622  162.5901 C.3     1  UNL1        0.0235
      2 C         140.7277  140.9231  161.7807 C.3     1  UNL1        0.0257
      3 C         140.6030  140.9412  160.2860 C.3     1  UNL1        0.0940
      4 N         139.6588  139.9985  159.6007 N.am    1  UNL1       -0.2761
      5 C         139.5341  140.0167  158.1060 C.2     1  UNL1        0.2490
      6 O         138.5898  139.0739  157.4206 O.2     1  UNL1       -0.2699
      7 C         138.8392  139.0377  160.4101 C.3     1  UNL1        0.0940
      8 C         138.9638  139.0195  161.9047 C.3     1  UNL1        0.0257
      9 C         139.3490  139.2418  163.7812 C.ar    1  UNL1       -0.0226
     10 C         138.4571  139.9664  164.7452 C.ar    1  UNL1       -0.0043
     11 C         137.8980  139.2460  165.9363 C.ar    1  UNL1       -0.0003
     12 C         138.2308  137.8010  166.1631 C.ar    1  UNL1       -0.0000
     13 C         139.1228  137.0765  165.1989 C.ar    1  UNL1       -0.0003
     14 C         139.6819  137.7970  164.0080 C.ar    1  UNL1       -0.0043
     15 C         140.3537  140.9775  157.2967 C.ar    1  UNL1        0.0547
     16 C         141.6856  140.5538  156.7523 C.ar    1  UNL1        0.0046
     17 C         142.5051  141.5148  155.9430 C.ar    1  UNL1        0.0001
     18 C         141.9927  142.8994  155.6781 C.ar    1  UNL1        0.0000
     19 C         140.6608  143.3232  156.2225 C.ar    1  UNL1        0.0013
     20 C         139.8413  142.3622  157.0318 C.ar    1  UNL1        0.0184
     21 C         138.5093  142.7859  157.5762 C.2     1  UNL1        0.0730
     22 O         137.3064  142.8107  156.6804 O.co2   1  UNL1       -0.5446
     23 O         138.3802  143.1849  159.0164 O.co2   1  UNL1       -0.5446
     24 C         140.6581  140.6547  163.6890 C.3     1  UNL1        0.0215
     25 C         142.1296  140.4172  163.8582 C.3     1  UNL1        0.0723
     26 C         142.2250  140.4273  163.7339 C.3     1  UNL1        0.0893
     27 C         142.1838  138.9288  163.6802 C.3     1  UNL1        0.0386
     28 C         142.9517  138.1949  162.6210 C.3     1  UNL1        0.0594
     29 C         143.8338  137.9007  161.4440 C.3     1  UNL1        0.0174
     30 C         144.3247  139.2073  160.8946 C.3     1  UNL1        0.0174
     31 C         143.7461  140.3090  161.7321 C.3     1  UNL1        0.0594
     32 C         143.0341  141.1918  162.7286 C.3     1  UNL1        0.0386
     33 N         142.8975  139.6834  162.7992 N.3     1  UNL1       -0.2751
     34 C         141.9607  139.4151  166.4910 C.3     1  UNL1        0.0718
     35 C         141.2732  140.7193  166.2147 C.ar    1  UNL1        0.1207
     36 N         140.4407  141.7508  166.9167 N.ar    1  UNL1       -0.2309
     37 C         140.1099  142.8302  165.9290 C.ar    1  UNL1        0.0983
     38 C         139.3179  144.0978  166.0551 C.ar    1  UNL1        0.0206
     39 C         139.1541  145.0009  164.8688 C.ar    1  UNL1        0.0016
     40 C         139.7822  144.6365  163.5563 C.ar    1  UNL1        0.0016
     41 C         140.5742  143.3689  163.4301 C.ar    1  UNL1        0.0188
     42 C         140.7381  142.4658  164.6165 C.ar    1  UNL1        0.0785
     43 N         141.4570  141.1612  164.7931 N.ar    1  UNL1       -0.3167
@<TRIPOS>UNITY_ATOM_ATTR
22 1
charge -1
@<TRIPOS>BOND
     1    34    35    1
     2    35    36   ar
     3    36    37   ar
     4    37    38   ar
     5    38    39   ar
     6    39    40   ar
     7    40    41   ar
     8    41    42   ar
     9    42    43   ar
    10    43    26    1
    11    26    27    1
    12    27    28    1
    13    28    29    1
    14    29    30    1
    15    30    31    1
    16    31    32    1
    17    31    33    1
    18    33    25    1
    19    25    24    1
    20    24     1    1
    21     1     9    1
    22     9    10   ar
    23    10    11   ar
    24    11    12   ar
    25    12    13   ar
    26    13    14   ar
    27     1     2    1
    28     2     3    1
    29     3     4    1
    30     4     5   am
    31     5     6    2
    32     5    15    1
    33    15    16   ar
    34    16    17   ar
    35    17    18   ar
    36    18    19   ar
    37    19    20   ar
    38    20    21    1
    39    21    22   ar
    40    21    23   ar
    41     4     7    1
    42     7     8    1
    43    43    35   ar
    44    32    26    1
    45     8     1    1
    46    42    37   ar
    47    33    28    1
    48    14     9   ar
    49    20    15   ar
@<TRIPOS>MOLECULE
*****
 43 49 0 0 0
SMALL
GASTEIGER

@<TRIPOS>ATOM
      1 C         140.1848  140.5532  163.6964 C.3     1  UNL1        0.0235
      2 C         141.0494  141.4776  164.5013 C.3     1  UNL1        0.0257
      3 C         140.9986  141.4373  165.9999 C.3     1  UNL1        0.0940
      4 N         140.0832  140.4724  166.6936 N.am    1  UNL1       -0.2761
      5 C         140.0324  140.4321  168.1922 C.2     1  UNL1        0.2490
      6 O         139.1170  139.4673  168.8859 O.2     1  UNL1       -0.2699
      7 C         139.2186  139.5480  165.8887 C.3     1  UNL1        0.0940
      8 C         139.2694  139.5883  164.3901 C.3     1  UNL1        0.0257
      9 C         139.5632  139.8829  162.5071 C.ar    1  UNL1       -0.0226
     10 C         140.3699  138.9288  161.6772 C.ar    1  UNL1       -0.0043
     11 C         139.7482  138.2585  160.4879 C.ar    1  UNL1       -0.0003
     12 C         138.3198  138.5425  160.1287 C.ar    1  UNL1       -0.0000
     13 C         137.5131  139.4966  160.9586 C.ar    1  UNL1       -0.0003
     14 C         138.1348  140.1668  162.1479 C.ar    1  UNL1       -0.0043
     15 C         140.8970  141.3566  168.9971 C.ar    1  UNL1        0.0547
     16 C         140.4080  142.7326  169.3396 C.ar    1  UNL1        0.0046
     17 C         141.2726  143.6570  170.1445 C.ar    1  UNL1        0.0001
     18 C         142.6263  143.2054  170.6068 C.ar    1  UNL1        0.0000
     19 C         143.1153  141.8293  170.2643 C.ar    1  UNL1        0.0013
     20 C         142.2506  140.9049  169.4594 C.ar    1  UNL1        0.0184
     21 C         142.7396  139.5289  169.1168 C.2     1  UNL1        0.0730
     22 O         142.8103  138.4720  170.1789 O.co2   1  UNL1       -0.5446
     23 O         143.1579  139.2096  167.7121 O.co2   1  UNL1       -0.5446
     24 C         140.8843  141.2852  162.5897 C.3     1  UNL1        0.0215
     25 C         140.6118  142.7431  162.3652 C.3     1  UNL1        0.0723
     26 C         140.6042  142.8442  162.4850 C.3     1  UNL1        0.0893
     27 C         139.1135  142.6918  162.4161 C.3     1  UNL1        0.0386
     28 C         138.2375  143.4469  163.3713 C.3     1  UNL1        0.0594
     29 C         137.7799  144.3541  164.4748 C.3     1  UNL1        0.0174
     30 C         138.9954  144.9661  165.1057 C.3     1  UNL1        0.0174
     31 C         140.2041  144.4371  164.3923 C.3     1  UNL1        0.0594
     32 C         141.2187  143.7517  163.5090 C.3     1  UNL1        0.0386
     33 N         139.7358  143.4981  163.3203 N.3     1  UNL1       -0.2751
     34 C         143.3620  142.0437  163.1553 C.3     1  UNL1        0.0718
     35 C         142.8892  141.6444  161.7889 C.ar    1  UNL1        0.1207
     36 N         143.3808  140.9266  160.5670 N.ar    1  UNL1       -0.2309
     37 C         142.2757  140.9277  159.5527 C.ar    1  UNL1        0.0983
     38 C         142.1873  140.3673  158.1642 C.ar    1  UNL1        0.0206
     39 C         140.9243  140.5254  157.3707 C.ar    1  UNL1        0.0016
     40 C         139.7496  141.2439  157.9657 C.ar    1  UNL1        0.0016
     41 C         139.8381  141.8043  159.3542 C.ar    1  UNL1        0.0188
     42 C         141.1011  141.6462  160.1477 C.ar    1  UNL1        0.0785
     43 N         141.4803  142.0891  161.5298 N.ar    1  UNL1       -0.3167
@<TRIPOS>UNITY_ATOM_ATTR
22 1
charge -1
@<TRIPOS>BOND
     1    34    35    1
     2    35    36   ar
     3    36    37   ar
     4    37    38   ar
     5    38    39   ar
     6    39    40   ar
     7    40    41   ar
     8    41    42   ar
     9    42    43   ar
    10    43    26    1
    11    26    27    1
    12    27    28    1
    13    28    29    1
    14    29    30    1
    15    30    31    1
    16    31    32    1
    17    31    33    1
    18    33    25    1
    19    25    24    1
    20    24     1    1
    21     1     9    1
    22     9    10   ar
    23    10    11   ar
    24    11    12   ar
    25    12    13   ar
    26    13    14   ar
    27     1     2    1
    28     2     3    1
    29     3     4    1
    30     4     5   am
    31     5     6    2
    32     5    15    1
    33    15    16   ar
    34    16    17   ar
    35    17    18   ar
    36    18    19   ar
    37    19    20   ar
    38    20    21    1
    39    21    22   ar
    40    21    23   ar
    41     4     7    1
    42     7     8    1
    43    43    35   ar
    44    32    26    1
    45     8     1    1
    46    42    37   ar
    47    33    28    1
    48    14     9   ar
    49    20    15   ar
@<TRIPOS>MOLECULE
*****
 43 49 0 0 0
SMALL
GASTEIGER

@<TRIPOS>ATOM
      1 C         139.9577  139.9605  162.5348 C.3     1  UNL1        0.0235
      2 C         140.7867  140.9091  161.7206 C.3     1  UNL1        0.0257
      3 C         140.6820  140.9022  160.2242 C.3     1  UNL1        0.0940
      4 N         139.7484  139.9466  159.5421 N.am    1  UNL1       -0.2761
      5 C         139.6438  139.9397  158.0457 C.2     1  UNL1        0.2490
      6 O         138.7102  138.9841  157.3636 O.2     1  UNL1       -0.2699
      7 C         138.9195  138.9980  160.3563 C.3     1  UNL1        0.0940
      8 C         139.0241  139.0049  161.8525 C.3     1  UNL1        0.0257
      9 C         139.3837  139.2590  163.7300 C.ar    1  UNL1       -0.0226
     10 C         139.7130  137.8178  163.9836 C.ar    1  UNL1       -0.0043
     11 C         139.1389  137.1164  165.1789 C.ar    1  UNL1       -0.0003
     12 C         138.2356  137.8563  166.1205 C.ar    1  UNL1       -0.0000
     13 C         137.9063  139.2976  165.8668 C.ar    1  UNL1       -0.0003
     14 C         138.4804  139.9989  164.6715 C.ar    1  UNL1       -0.0043
     15 C         140.4728  140.8883  157.2316 C.ar    1  UNL1        0.0547
     16 C         140.0244  142.3078  157.0471 C.ar    1  UNL1        0.0046
     17 C         140.8535  143.2564  156.2329 C.ar    1  UNL1        0.0001
     18 C         142.1310  142.7855  155.6033 C.ar    1  UNL1        0.0000
     19 C         142.5794  141.3661  155.7878 C.ar    1  UNL1        0.0013
     20 C         141.7503  140.4175  156.6020 C.ar    1  UNL1        0.0184
     21 C         142.1987  138.9980  156.7865 C.2     1  UNL1        0.0730
     22 O         143.2505  138.6700  157.8044 O.co2   1  UNL1       -0.5446
     23 O         141.5953  137.9065  155.9531 O.co2   1  UNL1       -0.5446
     24 C         140.6919  140.6724  163.6320 C.3     1  UNL1        0.0215
     25 C         142.1576  140.4269  163.8358 C.3     1  UNL1        0.0723
     26 C         142.2565  140.4357  163.7142 C.3     1  UNL1        0.0893
     27 C         142.1973  138.9378  163.6595 C.3     1  UNL1        0.0386
     28 C         142.9845  138.1935  162.6221 C.3     1  UNL1        0.0594
     29 C         143.8948  137.8872  161.4699 C.3     1  UNL1        0.0174
     30 C         144.4177  139.1870  160.9341 C.3     1  UNL1        0.0174
     31 C         143.8306  140.2966  161.7552 C.3     1  UNL1        0.0594
     32 C         143.1030  141.1891  162.7315 C.3     1  UNL1        0.0386
     33 N         142.9448  139.6826  162.7985 N.3     1  UNL1       -0.2751
     34 C         141.9432  139.4521  166.4764 C.3     1  UNL1        0.0718
     35 C         141.2602  140.7529  166.1742 C.ar    1  UNL1        0.1207
     36 N         140.4146  141.7911  166.8504 N.ar    1  UNL1       -0.2309
     37 C         140.1011  142.8599  165.8457 C.ar    1  UNL1        0.0983
     38 C         139.3064  144.1282  165.9443 C.ar    1  UNL1        0.0206
     39 C         139.1635  145.0188  164.7459 C.ar    1  UNL1        0.0016
     40 C         139.8153  144.6412  163.4488 C.ar    1  UNL1        0.0016
     41 C         140.6101  143.3729  163.3501 C.ar    1  UNL1        0.0188
     42 C         140.7530  142.4822  164.5486 C.ar    1  UNL1        0.0785
     43 N         141.4693  141.1801  164.7517 N.ar    1  UNL1       -0.3167
@<TRIPOS>UNITY_ATOM_ATTR
22 1
charge -1
@<TRIPOS>BOND
     1    34    35    1
     2    35    36   ar
     3    36    37   ar
     4    37    38   ar
     5    38    39   ar
     6    39    40   ar
     7    40    41   ar
     8    41    42   ar
     9    42    43   ar
    10    43    26    1
    11    26    27    1
    12    27    28    1
    13    28    29    1
    14    29    30    1
    15    30    31    1
    16    31    32    1
    17    31    33    1
    18    33    25    1
    19    25    24    1
    20    24     1    1
    21     1     9    1
    22     9    10   ar
    23    10    11   ar
    24    11    12   ar
    25    12    13   ar
    26    13    14   ar
    27     1     2    1
    28     2     3    1
    29     3     4    1
    30     4     5   am
    31     5     6    2
    32     5    15    1
    33    15    16   ar
    34    16    17   ar
    35    17    18   ar
    36    18    19   ar
    37    19    20   ar
    38    20    21    1
    39    21    22   ar
    40    21    23   ar
    41     4     7    1
    42     7     8    1
    43    43    35   ar
    44    32    26    1
    45     8     1    1
    46    42    37   ar
    47    33    28    1
    48    14     9   ar
    49    20    15   ar
