@<TRIPOS>MOLECULE
*****
 30 33 0 0 0
SMALL
GASTEIGER

@<TRIPOS>ATOM
      1 N         140.1355  139.4681  161.2425 N.3     1  UNL1       -0.2695
      2 C         140.2593  138.8048  162.5822 C.3     1  UNL1        0.0939
      3 C         141.5277  138.9397  163.3715 C.3     1  UNL1        0.1107
      4 N         142.6723  139.7378  162.8211 N.am    1  UNL1       -0.2764
      5 C         143.9407  139.8727  163.6103 C.2     1  UNL1        0.2301
      6 O         145.0853  140.6708  163.0600 O.2     1  UNL1       -0.2745
      7 C         142.5485  140.4011  161.4814 C.3     1  UNL1        0.1107
      8 C         141.2801  140.2662  160.6921 C.3     1  UNL1        0.0939
      9 C         138.8671  139.3333  160.4532 C.3     1  UNL1        0.0769
     10 C         137.6602  140.1405  160.8295 C.3     1  UNL1        0.0437
     11 C         137.9785  143.3205  163.9975 C.ar    1  UNL1        0.0684
     12 C         137.6472  141.9091  164.3823 C.ar    1  UNL1        0.0100
     13 C         137.5411  140.8491  163.3263 C.ar    1  UNL1       -0.0035
     14 C         137.7663  141.2005  161.8855 C.ar    1  UNL1       -0.0207
     15 C         138.0975  142.6120  161.5008 C.ar    1  UNL1       -0.0035
     16 C         138.2036  143.6720  162.5568 C.ar    1  UNL1        0.0100
     17 N         138.1907  145.4405  166.1095 N.1     1  UNL1       -0.1908
     18 C         138.0846  144.3805  165.0535 C.1     1  UNL1        0.1004
     19 C         144.0645  139.2094  164.9501 C.3     1  UNL1        0.1116
     20 C         143.3782  139.8004  166.1458 C.ar    1  UNL1       -0.0130
     21 C         143.0774  141.2692  166.1880 C.ar    1  UNL1       -0.0022
     22 C         142.3911  141.8602  167.3838 C.ar    1  UNL1        0.0190
     23 C         142.0056  140.9823  168.5372 C.ar    1  UNL1        0.0862
     24 C         142.3064  139.5133  168.4950 C.ar    1  UNL1        0.0190
     25 C         142.9927  138.9223  167.2993 C.ar    1  UNL1       -0.0022
     26 N         141.3193  141.5732  169.7330 N.ar    1  UNL1       -0.1886
     27 C         141.6742  141.3195  171.1681 C.ar    1  UNL1        0.2258
     28 N         140.7318  142.1111  172.0256 N.ar    1  UNL1       -0.1045
     29 N         139.7945  142.8541  171.1204 N.ar    1  UNL1       -0.0222
     30 N         140.1576  142.5217  169.7035 N.ar    1  UNL1       -0.0385
@<TRIPOS>BOND
     1    17    18    3
     2    18    11    1
     3    11    12   ar
     4    12    13   ar
     5    13    14   ar
     6    14    10    1
     7    10     9    1
     8     9     1    1
     9     1     2    1
    10     2     3    1
    11     3     4    1
    12     4     5   am
    13     5     6    2
    14     5    19    1
    15    19    20    1
    16    20    21   ar
    17    21    22   ar
    18    22    23   ar
    19    23    26    1
    20    26    27   ar
    21    27    28   ar
    22    28    29   ar
    23    29    30   ar
    24    23    24   ar
    25    24    25   ar
    26     4     7    1
    27     7     8    1
    28    14    15   ar
    29    15    16   ar
    30    16    11   ar
    31     8     1    1
    32    25    20   ar
    33    30    26   ar
@<TRIPOS>MOLECULE
*****
 30 33 0 0 0
SMALL
GASTEIGER

@<TRIPOS>ATOM
      1 N         139.5443  142.0376  160.7121 N.3     1  UNL1       -0.2695
      2 C         138.6216  141.8273  161.8760 C.3     1  UNL1        0.0939
      3 C         138.7022  140.5621  162.6777 C.3     1  UNL1        0.1107
      4 N         139.7054  139.5073  162.3157 N.am    1  UNL1       -0.2764
      5 C         139.7860  138.2421  163.1175 C.2     1  UNL1        0.2301
      6 O         140.7891  137.1874  162.7555 O.2     1  UNL1       -0.2745
      7 C         140.6280  139.7177  161.1519 C.3     1  UNL1        0.1107
      8 C         140.5475  140.9829  160.3501 C.3     1  UNL1        0.0939
      9 C         139.4638  143.3028  159.9103 C.3     1  UNL1        0.0769
     10 C         140.1820  144.5339  160.3776 C.3     1  UNL1        0.0437
     11 C         143.1648  144.2604  163.7359 C.ar    1  UNL1        0.0684
     12 C         143.5599  143.8547  162.3469 C.ar    1  UNL1        0.0100
     13 C         142.5656  143.9459  161.2275 C.ar    1  UNL1       -0.0035
     14 C         141.1763  144.4427  161.4971 C.ar    1  UNL1       -0.0207
     15 C         140.7812  144.8484  162.8860 C.ar    1  UNL1       -0.0035
     16 C         141.7755  144.7572  164.0054 C.ar    1  UNL1        0.0100
     17 N         145.1534  144.0780  165.9747 N.1     1  UNL1       -0.1908
     18 C         144.1591  144.1692  164.8553 C.1     1  UNL1        0.1004
     19 C         138.8633  138.0318  164.2813 C.3     1  UNL1        0.1116
     20 C         139.1471  138.7002  165.5938 C.ar    1  UNL1       -0.0130
     21 C         140.4906  139.3179  165.8459 C.ar    1  UNL1       -0.0022
     22 C         140.7744  139.9864  167.1583 C.ar    1  UNL1        0.0190
     23 C         139.7148  140.0372  168.2188 C.ar    1  UNL1        0.0862
     24 C         138.3712  139.4195  167.9667 C.ar    1  UNL1        0.0190
     25 C         138.0874  138.7511  166.6543 C.ar    1  UNL1       -0.0022
     26 N         139.9986  140.7057  169.5312 N.ar    1  UNL1       -0.1886
     27 C         139.9120  142.1773  169.8081 C.ar    1  UNL1        0.2258
     28 N         140.2787  142.4011  171.2453 N.ar    1  UNL1       -0.1045
     29 N         140.5921  141.0676  171.8566 N.ar    1  UNL1       -0.0222
     30 N         140.4189  140.0198  170.7973 N.ar    1  UNL1       -0.0385
@<TRIPOS>BOND
     1    17    18    3
     2    18    11    1
     3    11    12   ar
     4    12    13   ar
     5    13    14   ar
     6    14    10    1
     7    10     9    1
     8     9     1    1
     9     1     2    1
    10     2     3    1
    11     3     4    1
    12     4     5   am
    13     5     6    2
    14     5    19    1
    15    19    20    1
    16    20    21   ar
    17    21    22   ar
    18    22    23   ar
    19    23    26    1
    20    26    27   ar
    21    27    28   ar
    22    28    29   ar
    23    29    30   ar
    24    23    24   ar
    25    24    25   ar
    26     4     7    1
    27     7     8    1
    28    14    15   ar
    29    15    16   ar
    30    16    11   ar
    31     8     1    1
    32    25    20   ar
    33    30    26   ar
@<TRIPOS>MOLECULE
*****
 30 33 0 0 0
SMALL
GASTEIGER

@<TRIPOS>ATOM
      1 N         142.2366  141.5047  160.6662 N.3     1  UNL1       -0.2695
      2 C         143.0627  141.3961  161.9136 C.3     1  UNL1        0.0939
      3 C         142.8074  140.2846  162.8879 C.3     1  UNL1        0.1107
      4 N         141.7260  139.2816  162.6148 N.am    1  UNL1       -0.2764
      5 C         141.4707  138.1700  163.5891 C.2     1  UNL1        0.2301
      6 O         140.3893  137.1670  163.3161 O.2     1  UNL1       -0.2745
      7 C         140.8999  139.3901  161.3675 C.3     1  UNL1        0.1107
      8 C         141.1552  140.5017  160.3932 C.3     1  UNL1        0.0939
      9 C         142.4919  142.6162  159.6919 C.3     1  UNL1        0.0769
     10 C         141.9250  143.9814  159.9462 C.3     1  UNL1        0.0437
     11 C         139.6507  144.8022  163.7414 C.ar    1  UNL1        0.0684
     12 C         141.1331  145.0256  163.6922 C.ar    1  UNL1        0.0100
     13 C         141.8912  144.7520  162.4271 C.ar    1  UNL1       -0.0035
     14 C         141.1669  144.2550  161.2113 C.ar    1  UNL1       -0.0207
     15 C         139.6845  144.0316  161.2605 C.ar    1  UNL1       -0.0035
     16 C         138.9264  144.3052  162.5256 C.ar    1  UNL1        0.0100
     17 N         138.1345  145.3493  166.2716 N.1     1  UNL1       -0.1908
     18 C         138.8926  145.0758  165.0065 C.1     1  UNL1        0.1004
     19 C         142.2968  138.0615  164.8365 C.3     1  UNL1        0.1116
     20 C         141.9219  138.8513  166.0554 C.ar    1  UNL1       -0.0130
     21 C         140.5418  139.4249  166.1822 C.ar    1  UNL1       -0.0022
     22 C         140.1669  140.2147  167.4011 C.ar    1  UNL1        0.0190
     23 C         141.1722  140.4309  168.4931 C.ar    1  UNL1        0.0862
     24 C         142.5524  139.8572  168.3663 C.ar    1  UNL1        0.0190
     25 C         142.9273  139.0674  167.1474 C.ar    1  UNL1       -0.0022
     26 N         140.7973  141.2206  169.7120 N.ar    1  UNL1       -0.1886
     27 C         141.2215  140.9238  171.1199 C.ar    1  UNL1        0.2258
     28 N         140.6188  141.9656  172.0151 N.ar    1  UNL1       -0.1045
     29 N         139.8222  142.9064  171.1605 N.ar    1  UNL1       -0.0222
     30 N         139.9325  142.4460  169.7372 N.ar    1  UNL1       -0.0385
@<TRIPOS>BOND
     1    17    18    3
     2    18    11    1
     3    11    12   ar
     4    12    13   ar
     5    13    14   ar
     6    14    10    1
     7    10     9    1
     8     9     1    1
     9     1     2    1
    10     2     3    1
    11     3     4    1
    12     4     5   am
    13     5     6    2
    14     5    19    1
    15    19    20    1
    16    20    21   ar
    17    21    22   ar
    18    22    23   ar
    19    23    26    1
    20    26    27   ar
    21    27    28   ar
    22    28    29   ar
    23    29    30   ar
    24    23    24   ar
    25    24    25   ar
    26     4     7    1
    27     7     8    1
    28    14    15   ar
    29    15    16   ar
    30    16    11   ar
    31     8     1    1
    32    25    20   ar
    33    30    26   ar
@<TRIPOS>MOLECULE
*****
 30 33 0 0 0
SMALL
GASTEIGER

@<TRIPOS>ATOM
      1 N         142.0058  142.0428  159.8563 N.3     1  UNL1       -0.2695
      2 C         141.6660  140.8574  160.7105 C.3     1  UNL1        0.0939
      3 C         142.5997  140.4280  161.8031 C.3     1  UNL1        0.1107
      4 N         143.8733  141.1838  162.0415 N.am    1  UNL1       -0.2764
      5 C         144.8070  140.7543  163.1341 C.2     1  UNL1        0.2301
      6 O         146.0805  141.5101  163.3725 O.2     1  UNL1       -0.2745
      7 C         144.2131  142.3691  161.1873 C.3     1  UNL1        0.1107
      8 C         143.2794  142.7985  160.0947 C.3     1  UNL1        0.0939
      9 C         141.0721  142.4722  158.7638 C.3     1  UNL1        0.0769
     10 C         139.9627  143.4368  159.0614 C.3     1  UNL1        0.0437
     11 C         139.0282  144.5466  163.3211 C.ar    1  UNL1        0.0684
     12 C         138.3495  143.3690  162.6867 C.ar    1  UNL1        0.0100
     13 C         138.6610  142.9991  161.2668 C.ar    1  UNL1       -0.0035
     14 C         139.6512  143.8068  160.4813 C.ar    1  UNL1       -0.0207
     15 C         140.3299  144.9844  161.1157 C.ar    1  UNL1       -0.0035
     16 C         140.0184  145.3543  162.5356 C.ar    1  UNL1        0.0100
     17 N         138.4052  145.2864  166.1609 N.1     1  UNL1       -0.1908
     18 C         138.7167  144.9165  164.7410 C.1     1  UNL1        0.1004
     19 C         144.4671  139.5690  163.9883 C.3     1  UNL1        0.1116
     20 C         143.7759  139.7668  165.3048 C.ar    1  UNL1       -0.0130
     21 C         143.2312  141.1156  165.6706 C.ar    1  UNL1       -0.0022
     22 C         142.5400  141.3134  166.9871 C.ar    1  UNL1        0.0190
     23 C         142.3935  140.1624  167.9377 C.ar    1  UNL1        0.0862
     24 C         142.9383  138.8135  167.5719 C.ar    1  UNL1        0.0190
     25 C         143.6295  138.6157  166.2554 C.ar    1  UNL1       -0.0022
     26 N         141.7024  140.3602  169.2542 N.ar    1  UNL1       -0.1886
     27 C         142.2227  141.1595  170.4119 C.ar    1  UNL1        0.2258
     28 N         141.2114  141.0868  171.5174 N.ar    1  UNL1       -0.1045
     29 N         140.0660  140.2425  171.0428 N.ar    1  UNL1       -0.0222
     30 N         140.3694  139.7935  169.6441 N.ar    1  UNL1       -0.0385
@<TRIPOS>BOND
     1    17    18    3
     2    18    11    1
     3    11    12   ar
     4    12    13   ar
     5    13    14   ar
     6    14    10    1
     7    10     9    1
     8     9     1    1
     9     1     2    1
    10     2     3    1
    11     3     4    1
    12     4     5   am
    13     5     6    2
    14     5    19    1
    15    19    20    1
    16    20    21   ar
    17    21    22   ar
    18    22    23   ar
    19    23    26    1
    20    26    27   ar
    21    27    28   ar
    22    28    29   ar
    23    29    30   ar
    24    23    24   ar
    25    24    25   ar
    26     4     7    1
    27     7     8    1
    28    14    15   ar
    29    15    16   ar
    30    16    11   ar
    31     8     1    1
    32    25    20   ar
    33    30    26   ar
@<TRIPOS>MOLECULE
*****
 30 33 0 0 0
SMALL
GASTEIGER

@<TRIPOS>ATOM
      1 N         141.2294  141.0065  160.0268 N.3     1  UNL1       -0.2695
      2 C         141.2874  139.9569  161.0970 C.3     1  UNL1        0.0939
      3 C         140.2077  139.8845  162.1357 C.3     1  UNL1        0.1107
      4 N         139.0700  140.8616  162.1043 N.am    1  UNL1       -0.2764
      5 C         137.9903  140.7892  163.1431 C.2     1  UNL1        0.2301
      6 O         136.8527  141.7662  163.1117 O.2     1  UNL1       -0.2745
      7 C         139.0121  141.9111  161.0342 C.3     1  UNL1        0.1107
      8 C         140.0918  141.9835  159.9955 C.3     1  UNL1        0.0939
      9 C         142.3091  141.0789  158.9881 C.3     1  UNL1        0.0769
     10 C         143.7284  141.3382  159.3984 C.3     1  UNL1        0.0437
     11 C         144.6267  142.9323  163.5096 C.ar    1  UNL1        0.0684
     12 C         144.9401  141.5043  163.1738 C.ar    1  UNL1        0.0100
     13 C         144.6407  140.9730  161.8034 C.ar    1  UNL1       -0.0035
     14 C         144.0279  141.8695  160.7688 C.ar    1  UNL1       -0.0207
     15 C         143.7144  143.2975  161.1045 C.ar    1  UNL1       -0.0035
     16 C         144.0139  143.8288  162.4749 C.ar    1  UNL1        0.0100
     17 N         145.2256  143.9950  166.2504 N.1     1  UNL1       -0.1908
     18 C         144.9262  143.4636  164.8800 C.1     1  UNL1        0.1004
     19 C         138.0483  139.7396  164.2132 C.3     1  UNL1        0.1116
     20 C         138.6020  140.0774  165.5657 C.ar    1  UNL1       -0.0130
     21 C         139.5254  141.2484  165.7270 C.ar    1  UNL1       -0.0022
     22 C         140.0791  141.5862  167.0796 C.ar    1  UNL1        0.0190
     23 C         139.7095  140.7529  168.2708 C.ar    1  UNL1        0.0862
     24 C         138.7861  139.5818  168.1095 C.ar    1  UNL1        0.0190
     25 C         138.2324  139.2440  166.7570 C.ar    1  UNL1       -0.0022
     26 N         140.2632  141.0907  169.6233 N.ar    1  UNL1       -0.1886
     27 C         141.5083  140.5192  170.2341 C.ar    1  UNL1        0.2258
     28 N         141.6837  141.1345  171.5908 N.ar    1  UNL1       -0.1045
     29 N         140.5469  142.0863  171.8185 N.ar    1  UNL1       -0.0222
     30 N         139.6691  142.0592  170.6025 N.ar    1  UNL1       -0.0385
@<TRIPOS>BOND
     1    17    18    3
     2    18    11    1
     3    11    12   ar
     4    12    13   ar
     5    13    14   ar
     6    14    10    1
     7    10     9    1
     8     9     1    1
     9     1     2    1
    10     2     3    1
    11     3     4    1
    12     4     5   am
    13     5     6    2
    14     5    19    1
    15    19    20    1
    16    20    21   ar
    17    21    22   ar
    18    22    23   ar
    19    23    26    1
    20    26    27   ar
    21    27    28   ar
    22    28    29   ar
    23    29    30   ar
    24    23    24   ar
    25    24    25   ar
    26     4     7    1
    27     7     8    1
    28    14    15   ar
    29    15    16   ar
    30    16    11   ar
    31     8     1    1
    32    25    20   ar
    33    30    26   ar
@<TRIPOS>MOLECULE
*****
 30 33 0 0 0
SMALL
GASTEIGER

@<TRIPOS>ATOM
      1 N         140.8198  140.7854  159.8509 N.3     1  UNL1       -0.2695
      2 C         142.0113  141.1716  160.6763 C.3     1  UNL1        0.0939
      3 C         142.4289  140.3172  161.8364 C.3     1  UNL1        0.1107
      4 N         141.6548  139.0767  162.1711 N.am    1  UNL1       -0.2764
      5 C         142.0723  138.2223  163.3311 C.2     1  UNL1        0.2301
      6 O         141.2984  136.9818  163.6658 O.2     1  UNL1       -0.2745
      7 C         140.4633  138.6905  161.3457 C.3     1  UNL1        0.1107
      8 C         140.0458  139.5449  160.1857 C.3     1  UNL1        0.0939
      9 C         140.4023  141.6398  158.6909 C.3     1  UNL1        0.0769
     10 C         139.6152  142.8944  158.9284 C.3     1  UNL1        0.0437
     11 C         138.8635  144.3174  163.1308 C.ar    1  UNL1        0.0684
     12 C         138.0316  143.2107  162.5536 C.ar    1  UNL1        0.0100
     13 C         138.2822  142.7364  161.1528 C.ar    1  UNL1       -0.0035
     14 C         139.3646  143.3687  160.3292 C.ar    1  UNL1       -0.0207
     15 C         140.1965  144.4754  160.9063 C.ar    1  UNL1       -0.0035
     16 C         139.9460  144.9498  162.3071 C.ar    1  UNL1        0.0100
     17 N         138.3624  145.2661  165.9323 N.1     1  UNL1       -0.1908
     18 C         138.6130  144.7918  164.5315 C.1     1  UNL1        0.1004
     19 C         143.2639  138.6085  164.1565 C.3     1  UNL1        0.1116
     20 C         143.0967  139.5250  165.3321 C.ar    1  UNL1       -0.0130
     21 C         143.0640  141.0104  165.1263 C.ar    1  UNL1       -0.0022
     22 C         142.8968  141.9269  166.3019 C.ar    1  UNL1        0.0190
     23 C         142.7622  141.3580  167.6833 C.ar    1  UNL1        0.0862
     24 C         142.7949  139.8725  167.8891 C.ar    1  UNL1        0.0190
     25 C         142.9621  138.9560  166.7135 C.ar    1  UNL1       -0.0022
     26 N         142.5950  142.2745  168.8589 N.ar    1  UNL1       -0.1886
     27 C         141.3027  142.8651  169.3396 C.ar    1  UNL1        0.2258
     28 N         141.5997  143.7170  170.5380 N.ar    1  UNL1       -0.1045
     29 N         143.0756  143.6529  170.7979 N.ar    1  UNL1       -0.0222
     30 N         143.6907  142.7614  169.7602 N.ar    1  UNL1       -0.0385
@<TRIPOS>BOND
     1    17    18    3
     2    18    11    1
     3    11    12   ar
     4    12    13   ar
     5    13    14   ar
     6    14    10    1
     7    10     9    1
     8     9     1    1
     9     1     2    1
    10     2     3    1
    11     3     4    1
    12     4     5   am
    13     5     6    2
    14     5    19    1
    15    19    20    1
    16    20    21   ar
    17    21    22   ar
    18    22    23   ar
    19    23    26    1
    20    26    27   ar
    21    27    28   ar
    22    28    29   ar
    23    29    30   ar
    24    23    24   ar
    25    24    25   ar
    26     4     7    1
    27     7     8    1
    28    14    15   ar
    29    15    16   ar
    30    16    11   ar
    31     8     1    1
    32    25    20   ar
    33    30    26   ar
@<TRIPOS>MOLECULE
*****
 30 33 0 0 0
SMALL
GASTEIGER

@<TRIPOS>ATOM
      1 N         142.7037  139.9084  160.5902 N.3     1  UNL1       -0.2695
      2 C         141.9992  141.0053  161.3322 C.3     1  UNL1        0.0939
      3 C         140.8735  140.6755  162.2671 C.3     1  UNL1        0.1107
      4 N         140.4523  139.2488  162.4600 N.am    1  UNL1       -0.2764
      5 C         139.3266  138.9190  163.3948 C.2     1  UNL1        0.2301
      6 O         138.9053  137.4924  163.5877 O.2     1  UNL1       -0.2745
      7 C         141.1568  138.1520  161.7179 C.3     1  UNL1        0.1107
      8 C         142.2825  138.4818  160.7831 C.3     1  UNL1        0.0939
      9 C         143.8294  140.2382  159.6553 C.3     1  UNL1        0.0769
     10 C         143.5462  140.5151  158.2086 C.3     1  UNL1        0.0437
     11 C         146.8924  141.7185  155.4509 C.ar    1  UNL1        0.0684
     12 C         146.6536  142.4835  156.7188 C.ar    1  UNL1        0.0100
     13 C         145.5382  142.0824  157.6380 C.ar    1  UNL1       -0.0035
     14 C         144.6616  140.9162  157.2894 C.ar    1  UNL1       -0.0207
     15 C         144.9005  140.1511  156.0215 C.ar    1  UNL1       -0.0035
     16 C         146.0159  140.5523  155.1023 C.ar    1  UNL1        0.0100
     17 N         149.1233  142.5207  153.6125 N.1     1  UNL1       -0.1908
     18 C         148.0079  142.1196  154.5317 C.1     1  UNL1        0.1004
     19 C         138.6221  140.0160  164.1369 C.3     1  UNL1        0.1116
     20 C         139.0768  140.4027  165.5130 C.ar    1  UNL1       -0.0130
     21 C         138.8241  139.4847  166.6720 C.ar    1  UNL1       -0.0022
     22 C         139.2788  139.8714  168.0481 C.ar    1  UNL1        0.0190
     23 C         139.9863  141.1761  168.2652 C.ar    1  UNL1        0.0862
     24 C         140.2391  142.0942  167.1061 C.ar    1  UNL1        0.0190
     25 C         139.7844  141.7075  165.7300 C.ar    1  UNL1       -0.0022
     26 N         140.4410  141.5629  169.6413 N.ar    1  UNL1       -0.1886
     27 C         141.8640  141.7309  170.0850 C.ar    1  UNL1        0.2258
     28 N         141.8550  142.1213  171.5332 N.ar    1  UNL1       -0.1045
     29 N         140.4265  142.1946  171.9847 N.ar    1  UNL1       -0.0222
     30 N         139.5526  141.8495  170.8154 N.ar    1  UNL1       -0.0385
@<TRIPOS>BOND
     1    17    18    3
     2    18    11    1
     3    11    12   ar
     4    12    13   ar
     5    13    14   ar
     6    14    10    1
     7    10     9    1
     8     9     1    1
     9     1     2    1
    10     2     3    1
    11     3     4    1
    12     4     5   am
    13     5     6    2
    14     5    19    1
    15    19    20    1
    16    20    21   ar
    17    21    22   ar
    18    22    23   ar
    19    23    26    1
    20    26    27   ar
    21    27    28   ar
    22    28    29   ar
    23    29    30   ar
    24    23    24   ar
    25    24    25   ar
    26     4     7    1
    27     7     8    1
    28    14    15   ar
    29    15    16   ar
    30    16    11   ar
    31     8     1    1
    32    25    20   ar
    33    30    26   ar
@<TRIPOS>MOLECULE
*****
 30 33 0 0 0
SMALL
GASTEIGER

@<TRIPOS>ATOM
      1 N         143.4538  140.1631  160.6456 N.3     1  UNL1       -0.2695
      2 C         143.8219  140.0387  162.0944 C.3     1  UNL1        0.0939
      3 C         143.9272  141.2666  162.9496 C.3     1  UNL1        0.1107
      4 N         143.6643  142.6188  162.3559 N.am    1  UNL1       -0.2764
      5 C         143.7696  143.8467  163.2110 C.2     1  UNL1        0.2301
      6 O         143.5067  145.1989  162.6174 O.2     1  UNL1       -0.2745
      7 C         143.2962  142.7431  160.9071 C.3     1  UNL1        0.1107
      8 C         143.1909  141.5153  160.0520 C.3     1  UNL1        0.0939
      9 C         143.3485  138.9352  159.7904 C.3     1  UNL1        0.0769
     10 C         142.1227  138.0738  159.8626 C.3     1  UNL1        0.0437
     11 C         139.6739  137.9567  163.6361 C.ar    1  UNL1        0.0684
     12 C         139.1407  138.6496  162.4173 C.ar    1  UNL1        0.0100
     13 C         139.9570  138.6886  161.1594 C.ar    1  UNL1       -0.0035
     14 C         141.3064  138.0348  161.1204 C.ar    1  UNL1       -0.0207
     15 C         141.8396  137.3420  162.3393 C.ar    1  UNL1       -0.0035
     16 C         141.0233  137.3029  163.5972 C.ar    1  UNL1        0.0100
     17 N         138.0413  137.8787  166.1518 N.1     1  UNL1       -0.1908
     18 C         138.8576  137.9177  164.8940 C.1     1  UNL1        0.1004
     19 C         144.1377  143.7223  164.6599 C.3     1  UNL1        0.1116
     20 C         143.1621  143.1303  165.6334 C.ar    1  UNL1       -0.0130
     21 C         143.6564  142.5046  166.9039 C.ar    1  UNL1       -0.0022
     22 C         142.6809  141.9126  167.8774 C.ar    1  UNL1        0.0190
     23 C         141.2110  141.9463  167.5805 C.ar    1  UNL1        0.0862
     24 C         140.7166  142.5719  166.3099 C.ar    1  UNL1        0.0190
     25 C         141.6922  143.1639  165.3364 C.ar    1  UNL1       -0.0022
     26 N         140.2354  141.3543  168.5540 N.ar    1  UNL1       -0.1886
     27 C         139.7996  141.9703  169.8504 C.ar    1  UNL1        0.2258
     28 N         138.8192  141.0391  170.4997 N.ar    1  UNL1       -0.1045
     29 N         138.6490  139.8475  169.6046 N.ar    1  UNL1       -0.0222
     30 N         139.5243  140.0423  168.4021 N.ar    1  UNL1       -0.0385
@<TRIPOS>BOND
     1    17    18    3
     2    18    11    1
     3    11    12   ar
     4    12    13   ar
     5    13    14   ar
     6    14    10    1
     7    10     9    1
     8     9     1    1
     9     1     2    1
    10     2     3    1
    11     3     4    1
    12     4     5   am
    13     5     6    2
    14     5    19    1
    15    19    20    1
    16    20    21   ar
    17    21    22   ar
    18    22    23   ar
    19    23    26    1
    20    26    27   ar
    21    27    28   ar
    22    28    29   ar
    23    29    30   ar
    24    23    24   ar
    25    24    25   ar
    26     4     7    1
    27     7     8    1
    28    14    15   ar
    29    15    16   ar
    30    16    11   ar
    31     8     1    1
    32    25    20   ar
    33    30    26   ar
@<TRIPOS>MOLECULE
*****
 30 33 0 0 0
SMALL
GASTEIGER

@<TRIPOS>ATOM
      1 N         142.3306  139.2238  159.2815 N.3     1  UNL1       -0.2695
      2 C         141.2816  138.6913  160.2122 C.3     1  UNL1        0.0939
      3 C         141.5796  138.5488  161.6754 C.3     1  UNL1        0.1107
      4 N         142.9266  138.9389  162.2079 N.am    1  UNL1       -0.2764
      5 C         143.2247  138.7965  163.6710 C.2     1  UNL1        0.2301
      6 O         144.5716  139.1865  164.2036 O.2     1  UNL1       -0.2745
      7 C         143.9756  139.4714  161.2772 C.3     1  UNL1        0.1107
      8 C         143.6776  139.6138  159.8140 C.3     1  UNL1        0.0939
      9 C         142.0326  139.3662  157.8183 C.3     1  UNL1        0.0769
     10 C         141.0131  138.4770  157.1705 C.3     1  UNL1        0.0437
     11 C         142.2974  134.6312  155.2185 C.ar    1  UNL1        0.0684
     12 C         140.9275  135.1838  154.9575 C.ar    1  UNL1        0.0100
     13 C         140.4995  136.4657  155.6082 C.ar    1  UNL1       -0.0035
     14 C         141.4412  137.1951  156.5198 C.ar    1  UNL1       -0.0207
     15 C         142.8110  136.6424  156.7808 C.ar    1  UNL1       -0.0035
     16 C         143.2391  135.3605  156.1301 C.ar    1  UNL1        0.0100
     17 N         143.1536  132.0673  153.9171 N.1     1  UNL1       -0.1908
     18 C         142.7255  133.3493  154.5678 C.1     1  UNL1        0.1004
     19 C         142.1756  138.2640  164.6017 C.3     1  UNL1        0.1116
     20 C         141.8454  139.0059  165.8629 C.ar    1  UNL1       -0.0130
     21 C         142.7871  138.9584  167.0294 C.ar    1  UNL1       -0.0022
     22 C         142.4569  139.7003  168.2906 C.ar    1  UNL1        0.0190
     23 C         141.1851  140.4898  168.3851 C.ar    1  UNL1        0.0862
     24 C         140.2433  140.5374  167.2185 C.ar    1  UNL1        0.0190
     25 C         140.5735  139.7955  165.9574 C.ar    1  UNL1       -0.0022
     26 N         140.8549  141.2318  169.6463 N.ar    1  UNL1       -0.1886
     27 C         141.4461  140.9751  171.0008 C.ar    1  UNL1        0.2258
     28 N         140.8321  141.9454  171.9660 N.ar    1  UNL1       -0.1045
     29 N         139.8614  142.8017  171.2080 N.ar    1  UNL1       -0.0222
     30 N         139.8755  142.3607  169.7744 N.ar    1  UNL1       -0.0385
@<TRIPOS>BOND
     1    17    18    3
     2    18    11    1
     3    11    12   ar
     4    12    13   ar
     5    13    14   ar
     6    14    10    1
     7    10     9    1
     8     9     1    1
     9     1     2    1
    10     2     3    1
    11     3     4    1
    12     4     5   am
    13     5     6    2
    14     5    19    1
    15    19    20    1
    16    20    21   ar
    17    21    22   ar
    18    22    23   ar
    19    23    26    1
    20    26    27   ar
    21    27    28   ar
    22    28    29   ar
    23    29    30   ar
    24    23    24   ar
    25    24    25   ar
    26     4     7    1
    27     7     8    1
    28    14    15   ar
    29    15    16   ar
    30    16    11   ar
    31     8     1    1
    32    25    20   ar
    33    30    26   ar
