@<TRIPOS>MOLECULE
*****
 32 36 0 0 0
SMALL
GASTEIGER

@<TRIPOS>ATOM
      1 O         142.2763  140.2410  165.1125 O.3     1  UNL1       -0.3498
      2 C         142.4965  141.6701  164.7133 C.3     1  UNL1        0.1187
      3 C         141.3418  142.6270  164.6835 C.3     1  UNL1        0.0456
      4 C         141.5621  144.0560  164.2843 C.3     1  UNL1        0.0600
      5 C         142.2228  145.3286  163.8441 C.3     1  UNL1        0.0174
      6 C         143.6834  145.0487  163.6480 C.3     1  UNL1        0.0174
      7 C         143.9253  143.6031  163.9671 C.3     1  UNL1        0.0600
      8 C         143.8715  142.1422  164.3439 C.3     1  UNL1        0.0456
      9 N         142.6142  142.9896  164.3603 N.3     1  UNL1       -0.2739
     10 C         142.3939  141.5605  164.7595 C.3     1  UNL1        0.0896
     11 C         143.3260  140.9014  165.7325 C.3     1  UNL1        0.0896
     12 N         143.0149  140.9207  167.1997 N.3     1  UNL1       -0.2715
     13 C         142.7164  139.6393  167.9201 C.3     1  UNL1        0.0721
     14 C         142.4053  139.6586  169.3873 C.3     1  UNL1        0.0174
     15 C         142.3927  140.9593  170.1343 C.3     1  UNL1        0.0029
     16 C         142.6912  142.2407  169.4140 C.3     1  UNL1        0.0174
     17 C         143.0023  142.2215  167.9468 C.3     1  UNL1        0.0721
     18 C         141.1836  139.4417  164.4666 C.3     1  UNL1        0.1596
     19 F         141.4939  138.1081  158.6250 F       1  UNL1       -0.2042
     20 C         141.4163  138.4415  160.0854 C.ar    1  UNL1        0.1401
     21 C         140.3749  139.4003  160.5816 C.ar    1  UNL1        0.0294
     22 C         140.2973  139.7337  162.0420 C.ar    1  UNL1        0.0007
     23 C         141.2612  139.1083  163.0063 C.ar    1  UNL1        0.0089
     24 C         142.3026  138.1495  162.5102 C.ar    1  UNL1        0.0007
     25 C         142.3802  137.8162  161.0497 C.ar    1  UNL1        0.0294
     26 C         140.0133  138.9759  165.2811 C.ar    1  UNL1        0.0089
     27 C         139.3536  137.6661  164.9656 C.ar    1  UNL1        0.0007
     28 C         138.1833  137.2003  165.7801 C.ar    1  UNL1        0.0294
     29 C         137.6726  138.0443  166.9102 C.ar    1  UNL1        0.1401
     30 F         136.5024  137.5785  167.7247 F       1  UNL1       -0.2042
     31 C         138.3322  139.3540  167.2257 C.ar    1  UNL1        0.0294
     32 C         139.5026  139.8198  166.4111 C.ar    1  UNL1        0.0007
@<TRIPOS>BOND
     1    19    20    1
     2    20    21   ar
     3    21    22   ar
     4    22    23   ar
     5    23    18    1
     6    18     1    1
     7     1     2    1
     8     2     3    1
     9     3     4    1
    10     4     5    1
    11     5     6    1
    12     6     7    1
    13     7     8    1
    14     7     9    1
    15     9    10    1
    16    10    11    1
    17    11    12    1
    18    12    13    1
    19    13    14    1
    20    14    15    1
    21    15    16    1
    22    16    17    1
    23    18    26    1
    24    26    27   ar
    25    27    28   ar
    26    28    29   ar
    27    29    30    1
    28    29    31   ar
    29    31    32   ar
    30    23    24   ar
    31    24    25   ar
    32    25    20   ar
    33     8     2    1
    34    17    12    1
    35    32    26   ar
    36     9     4    1
@<TRIPOS>MOLECULE
*****
 32 36 0 0 0
SMALL
GASTEIGER

@<TRIPOS>ATOM
      1 O         142.2882  140.2389  165.0753 O.3     1  UNL1       -0.3498
      2 C         142.5039  141.6708  164.6838 C.3     1  UNL1        0.1187
      3 C         141.3462  142.6242  164.6592 C.3     1  UNL1        0.0456
      4 C         141.5619  144.0560  164.2677 C.3     1  UNL1        0.0600
      5 C         142.2186  145.3331  163.8342 C.3     1  UNL1        0.0174
      6 C         143.6800  145.0588  163.6365 C.3     1  UNL1        0.0174
      7 C         143.9265  143.6123  163.9478 C.3     1  UNL1        0.0600
      8 C         143.8774  142.1493  164.3168 C.3     1  UNL1        0.0456
      9 N         142.6174  142.9926  164.3379 N.3     1  UNL1       -0.2739
     10 C         142.4017  141.5607  164.7294 C.3     1  UNL1        0.0896
     11 C         143.3295  140.9026  165.7072 C.3     1  UNL1        0.0896
     12 N         143.0144  140.9273  167.1734 N.3     1  UNL1       -0.2715
     13 C         142.9931  142.2315  167.9141 C.3     1  UNL1        0.0721
     14 C         142.6779  142.2563  169.3804 C.3     1  UNL1        0.0174
     15 C         142.3840  140.9768  170.1061 C.3     1  UNL1        0.0029
     16 C         142.4053  139.6726  169.3654 C.3     1  UNL1        0.0174
     17 C         142.7205  139.6478  167.8991 C.3     1  UNL1        0.0721
     18 C         141.1907  139.4430  164.4335 C.3     1  UNL1        0.1596
     19 F         136.5192  137.5885  167.7104 F       1  UNL1       -0.2042
     20 C         137.6871  138.0522  166.8912 C.ar    1  UNL1        0.1401
     21 C         138.2006  137.2007  165.7680 C.ar    1  UNL1        0.0294
     22 C         139.3685  137.6644  164.9488 C.ar    1  UNL1        0.0007
     23 C         140.0229  138.9795  165.2527 C.ar    1  UNL1        0.0089
     24 C         139.5093  139.8309  166.3757 C.ar    1  UNL1        0.0007
     25 C         138.3415  139.3673  167.1949 C.ar    1  UNL1        0.0294
     26 C         141.2610  139.1108  162.9724 C.ar    1  UNL1        0.0089
     27 C         140.3070  139.7544  162.0101 C.ar    1  UNL1        0.0007
     28 C         140.3774  139.4221  160.5491 C.ar    1  UNL1        0.0294
     29 C         141.4016  138.4463  160.0503 C.ar    1  UNL1        0.1401
     30 F         141.4719  138.1141  158.5893 F       1  UNL1       -0.2042
     31 C         142.3555  137.8028  161.0125 C.ar    1  UNL1        0.0294
     32 C         142.2852  138.1351  162.4737 C.ar    1  UNL1        0.0007
@<TRIPOS>BOND
     1    19    20    1
     2    20    21   ar
     3    21    22   ar
     4    22    23   ar
     5    23    18    1
     6    18     1    1
     7     1     2    1
     8     2     3    1
     9     3     4    1
    10     4     5    1
    11     5     6    1
    12     6     7    1
    13     7     8    1
    14     7     9    1
    15     9    10    1
    16    10    11    1
    17    11    12    1
    18    12    13    1
    19    13    14    1
    20    14    15    1
    21    15    16    1
    22    16    17    1
    23    18    26    1
    24    26    27   ar
    25    27    28   ar
    26    28    29   ar
    27    29    30    1
    28    29    31   ar
    29    31    32   ar
    30    23    24   ar
    31    24    25   ar
    32    25    20   ar
    33     8     2    1
    34    17    12    1
    35    32    26   ar
    36     9     4    1
@<TRIPOS>MOLECULE
*****
 32 36 0 0 0
SMALL
GASTEIGER

@<TRIPOS>ATOM
      1 O         139.4261  141.5876  165.0700 O.3     1  UNL1       -0.3498
      2 C         139.5672  142.7329  164.1116 C.3     1  UNL1        0.1187
      3 C         140.6237  142.6946  163.0475 C.3     1  UNL1        0.0456
      4 C         140.7648  143.8398  162.0891 C.3     1  UNL1        0.0600
      5 C         140.5472  145.1471  161.3864 C.3     1  UNL1        0.0174
      6 C         139.4088  145.8525  162.0618 C.3     1  UNL1        0.0174
      7 C         138.9228  144.9813  163.1820 C.3     1  UNL1        0.0600
      8 C         138.6519  143.9165  164.2174 C.3     1  UNL1        0.0456
      9 N         139.7608  143.7374  163.1989 N.3     1  UNL1       -0.2739
     10 C         139.6197  142.5921  164.1572 C.3     1  UNL1        0.0896
     11 C         138.3618  141.7752  164.1696 C.3     1  UNL1        0.0896
     12 N         138.2232  140.5976  163.2509 N.3     1  UNL1       -0.2715
     13 C         138.6277  139.2306  163.7175 C.3     1  UNL1        0.0721
     14 C         138.4892  138.0530  162.7989 C.3     1  UNL1        0.0174
     15 C         137.9461  138.2423  161.4135 C.3     1  UNL1        0.0029
     16 C         137.5416  139.6093  160.9468 C.3     1  UNL1        0.0174
     17 C         137.6801  140.7869  161.8655 C.3     1  UNL1        0.0721
     18 C         140.4996  141.3208  166.0831 C.3     1  UNL1        0.1596
     19 F         139.6360  142.8082  171.8313 F       1  UNL1       -0.2042
     20 C         139.8519  142.4364  170.3943 C.ar    1  UNL1        0.1401
     21 C         139.5494  141.0437  169.9263 C.ar    1  UNL1        0.0294
     22 C         139.7653  140.6719  168.4892 C.ar    1  UNL1        0.0007
     23 C         140.2837  141.6927  167.5201 C.ar    1  UNL1        0.0089
     24 C         140.5862  143.0854  167.9880 C.ar    1  UNL1        0.0007
     25 C         140.3703  143.4572  169.4251 C.ar    1  UNL1        0.0294
     26 C         141.7889  140.6822  165.6592 C.ar    1  UNL1        0.0089
     27 C         142.9730  141.5376  165.3177 C.ar    1  UNL1        0.0007
     28 C         144.2623  140.8989  164.8938 C.ar    1  UNL1        0.0294
     29 C         144.3677  139.4049  164.8113 C.ar    1  UNL1        0.1401
     30 F         145.6570  138.7663  164.3874 F       1  UNL1       -0.2042
     31 C         143.1837  138.5495  165.1528 C.ar    1  UNL1        0.0294
     32 C         141.8943  139.1883  165.5767 C.ar    1  UNL1        0.0007
@<TRIPOS>BOND
     1    19    20    1
     2    20    21   ar
     3    21    22   ar
     4    22    23   ar
     5    23    18    1
     6    18     1    1
     7     1     2    1
     8     2     3    1
     9     3     4    1
    10     4     5    1
    11     5     6    1
    12     6     7    1
    13     7     8    1
    14     7     9    1
    15     9    10    1
    16    10    11    1
    17    11    12    1
    18    12    13    1
    19    13    14    1
    20    14    15    1
    21    15    16    1
    22    16    17    1
    23    18    26    1
    24    26    27   ar
    25    27    28   ar
    26    28    29   ar
    27    29    30    1
    28    29    31   ar
    29    31    32   ar
    30    23    24   ar
    31    24    25   ar
    32    25    20   ar
    33     8     2    1
    34    17    12    1
    35    32    26   ar
    36     9     4    1
@<TRIPOS>MOLECULE
*****
 32 36 0 0 0
SMALL
GASTEIGER

@<TRIPOS>ATOM
      1 O         142.7160  140.4040  165.1495 O.3     1  UNL1       -0.3498
      2 C         142.8688  141.8606  164.8255 C.3     1  UNL1        0.1187
      3 C         141.7389  142.6084  164.1820 C.3     1  UNL1        0.0456
      4 C         141.8918  144.0650  163.8580 C.3     1  UNL1        0.0600
      5 C         142.4676  145.4433  163.7215 C.3     1  UNL1        0.0174
      6 C         143.8606  145.4207  164.2774 C.3     1  UNL1        0.0174
      7 C         144.1457  144.0285  164.7574 C.3     1  UNL1        0.0600
      8 C         144.1517  142.5694  165.1449 C.3     1  UNL1        0.0456
      9 N         142.9289  143.1906  164.4982 N.3     1  UNL1       -0.2739
     10 C         142.7760  141.7340  164.8222 C.3     1  UNL1        0.0896
     11 C         143.8506  140.7623  164.4334 C.3     1  UNL1        0.0896
     12 N         143.8295  140.1246  163.0759 N.3     1  UNL1       -0.2715
     13 C         143.9348  140.9760  161.8455 C.3     1  UNL1        0.0721
     14 C         143.9138  140.3383  160.4880 C.3     1  UNL1        0.0174
     15 C         143.7873  138.8491  160.3608 C.3     1  UNL1        0.0029
     16 C         143.6820  137.9976  161.5912 C.3     1  UNL1        0.0174
     17 C         143.7030  138.6352  162.9487 C.3     1  UNL1        0.0721
     18 C         141.4035  139.8816  165.6541 C.3     1  UNL1        0.1596
     19 F         137.3640  137.6904  161.7966 F       1  UNL1       -0.2042
     20 C         138.3739  138.2382  162.7610 C.ar    1  UNL1        0.1401
     21 C         139.3989  137.3286  163.3710 C.ar    1  UNL1        0.0294
     22 C         140.4088  137.8764  164.3354 C.ar    1  UNL1        0.0007
     23 C         140.3937  139.3339  164.6898 C.ar    1  UNL1        0.0089
     24 C         139.3687  140.2435  164.0799 C.ar    1  UNL1        0.0007
     25 C         138.3589  139.6957  163.1155 C.ar    1  UNL1        0.0294
     26 C         141.1010  139.9070  167.1231 C.ar    1  UNL1        0.0089
     27 C         142.1842  139.6093  168.1172 C.ar    1  UNL1        0.0007
     28 C         141.8817  139.6348  169.5862 C.ar    1  UNL1        0.0294
     29 C         140.4960  139.9579  170.0611 C.ar    1  UNL1        0.1401
     30 F         140.1935  139.9833  171.5300 F       1  UNL1       -0.2042
     31 C         139.4128  140.2556  169.0670 C.ar    1  UNL1        0.0294
     32 C         139.7154  140.2301  167.5980 C.ar    1  UNL1        0.0007
@<TRIPOS>BOND
     1    19    20    1
     2    20    21   ar
     3    21    22   ar
     4    22    23   ar
     5    23    18    1
     6    18     1    1
     7     1     2    1
     8     2     3    1
     9     3     4    1
    10     4     5    1
    11     5     6    1
    12     6     7    1
    13     7     8    1
    14     7     9    1
    15     9    10    1
    16    10    11    1
    17    11    12    1
    18    12    13    1
    19    13    14    1
    20    14    15    1
    21    15    16    1
    22    16    17    1
    23    18    26    1
    24    26    27   ar
    25    27    28   ar
    26    28    29   ar
    27    29    30    1
    28    29    31   ar
    29    31    32   ar
    30    23    24   ar
    31    24    25   ar
    32    25    20   ar
    33     8     2    1
    34    17    12    1
    35    32    26   ar
    36     9     4    1
@<TRIPOS>MOLECULE
*****
 32 36 0 0 0
SMALL
GASTEIGER

@<TRIPOS>ATOM
      1 O         142.7163  140.4024  165.1331 O.3     1  UNL1       -0.3498
      2 C         142.8712  141.8594  164.8118 C.3     1  UNL1        0.1187
      3 C         141.7428  142.6098  164.1687 C.3     1  UNL1        0.0456
      4 C         141.8978  144.0667  163.8475 C.3     1  UNL1        0.0600
      5 C         142.4754  145.4446  163.7141 C.3     1  UNL1        0.0174
      6 C         143.8679  145.4193  164.2712 C.3     1  UNL1        0.0174
      7 C         144.1508  144.0259  164.7489 C.3     1  UNL1        0.0600
      8 C         144.1546  142.5660  165.1336 C.3     1  UNL1        0.0456
      9 N         142.9332  143.1899  164.4870 N.3     1  UNL1       -0.2739
     10 C         142.7782  141.7329  164.8082 C.3     1  UNL1        0.0896
     11 C         143.8529  140.7609  164.4205 C.3     1  UNL1        0.0896
     12 N         143.8311  140.1206  163.0643 N.3     1  UNL1       -0.2715
     13 C         143.9203  140.9709  161.8318 C.3     1  UNL1        0.0721
     14 C         143.8985  140.3306  160.4755 C.3     1  UNL1        0.0174
     15 C         143.7875  138.8399  160.3517 C.3     1  UNL1        0.0029
     16 C         143.6983  137.9894  161.5841 C.3     1  UNL1        0.0174
     17 C         143.7201  138.6298  162.9404 C.3     1  UNL1        0.0721
     18 C         141.4033  139.8811  165.6376 C.3     1  UNL1        0.1596
     19 F         140.1990  139.9705  171.5148 F       1  UNL1       -0.2042
     20 C         140.5000  139.9482  170.0455 C.ar    1  UNL1        0.1401
     21 C         141.8852  139.6258  169.5685 C.ar    1  UNL1        0.0294
     22 C         142.1863  139.6034  168.0992 C.ar    1  UNL1        0.0007
     23 C         141.1022  139.9035  167.1068 C.ar    1  UNL1        0.0089
     24 C         139.7171  140.2259  167.5837 C.ar    1  UNL1        0.0007
     25 C         139.4160  140.2482  169.0530 C.ar    1  UNL1        0.0294
     26 C         140.3916  139.3375  164.6728 C.ar    1  UNL1        0.0089
     27 C         140.4294  137.8895  164.2829 C.ar    1  UNL1        0.0007
     28 C         139.4176  137.3459  163.3181 C.ar    1  UNL1        0.0294
     29 C         138.3680  138.2503  162.7431 C.ar    1  UNL1        0.1401
     30 F         137.3563  137.7067  161.7784 F       1  UNL1       -0.2042
     31 C         138.3302  139.6982  163.1330 C.ar    1  UNL1        0.0294
     32 C         139.3421  140.2418  164.0978 C.ar    1  UNL1        0.0007
@<TRIPOS>BOND
     1    19    20    1
     2    20    21   ar
     3    21    22   ar
     4    22    23   ar
     5    23    18    1
     6    18     1    1
     7     1     2    1
     8     2     3    1
     9     3     4    1
    10     4     5    1
    11     5     6    1
    12     6     7    1
    13     7     8    1
    14     7     9    1
    15     9    10    1
    16    10    11    1
    17    11    12    1
    18    12    13    1
    19    13    14    1
    20    14    15    1
    21    15    16    1
    22    16    17    1
    23    18    26    1
    24    26    27   ar
    25    27    28   ar
    26    28    29   ar
    27    29    30    1
    28    29    31   ar
    29    31    32   ar
    30    23    24   ar
    31    24    25   ar
    32    25    20   ar
    33     8     2    1
    34    17    12    1
    35    32    26   ar
    36     9     4    1
@<TRIPOS>MOLECULE
*****
 32 36 0 0 0
SMALL
GASTEIGER

@<TRIPOS>ATOM
      1 O         140.4247  140.8063  165.0406 O.3     1  UNL1       -0.3498
      2 C         141.2627  140.1623  163.9761 C.3     1  UNL1        0.1187
      3 C         142.4290  139.3002  164.3589 C.3     1  UNL1        0.0456
      4 C         143.2670  138.6563  163.2944 C.3     1  UNL1        0.0600
      5 C         143.7973  138.2365  161.9556 C.3     1  UNL1        0.0174
      6 C         142.9344  138.8602  160.8990 C.3     1  UNL1        0.0174
      7 C         141.8708  139.6654  161.5848 C.3     1  UNL1        0.0600
      8 C         140.9344  140.3804  162.5288 C.3     1  UNL1        0.0456
      9 N         142.0763  139.5393  163.0653 N.3     1  UNL1       -0.2739
     10 C         141.2383  140.1833  164.1298 C.3     1  UNL1        0.0896
     11 C         139.7428  140.0854  164.0685 C.3     1  UNL1        0.0896
     12 N         139.0123  139.1681  165.0038 N.3     1  UNL1       -0.2715
     13 C         138.9456  137.6981  164.7128 C.3     1  UNL1        0.0721
     14 C         138.2152  136.7807  165.6480 C.3     1  UNL1        0.0174
     15 C         137.5514  137.3332  166.8744 C.3     1  UNL1        0.0029
     16 C         137.6181  138.8032  167.1655 C.3     1  UNL1        0.0174
     17 C         138.3485  139.7206  166.2303 C.3     1  UNL1        0.0721
     18 C         140.7459  142.1940  165.5108 C.3     1  UNL1        0.1596
     19 F         139.8589  146.8769  161.8661 F       1  UNL1       -0.2042
     20 C         140.0807  145.7062  162.7773 C.ar    1  UNL1        0.1401
     21 C         138.9134  144.8890  163.2462 C.ar    1  UNL1        0.0294
     22 C         139.1352  143.7183  164.1574 C.ar    1  UNL1        0.0007
     23 C         140.5242  143.3647  164.5997 C.ar    1  UNL1        0.0089
     24 C         141.6915  144.1818  164.1308 C.ar    1  UNL1        0.0007
     25 C         141.4697  145.3525  163.2196 C.ar    1  UNL1        0.0294
     26 C         141.2889  142.4110  166.8921 C.ar    1  UNL1        0.0089
     27 C         140.3878  142.9108  167.9823 C.ar    1  UNL1        0.0007
     28 C         140.9307  143.1277  169.3636 C.ar    1  UNL1        0.0294
     29 C         142.3748  142.8449  169.6549 C.ar    1  UNL1        0.1401
     30 F         142.9177  143.0618  171.0362 F       1  UNL1       -0.2042
     31 C         143.2758  142.3450  168.5648 C.ar    1  UNL1        0.0294
     32 C         142.7328  142.1281  167.1834 C.ar    1  UNL1        0.0007
@<TRIPOS>BOND
     1    19    20    1
     2    20    21   ar
     3    21    22   ar
     4    22    23   ar
     5    23    18    1
     6    18     1    1
     7     1     2    1
     8     2     3    1
     9     3     4    1
    10     4     5    1
    11     5     6    1
    12     6     7    1
    13     7     8    1
    14     7     9    1
    15     9    10    1
    16    10    11    1
    17    11    12    1
    18    12    13    1
    19    13    14    1
    20    14    15    1
    21    15    16    1
    22    16    17    1
    23    18    26    1
    24    26    27   ar
    25    27    28   ar
    26    28    29   ar
    27    29    30    1
    28    29    31   ar
    29    31    32   ar
    30    23    24   ar
    31    24    25   ar
    32    25    20   ar
    33     8     2    1
    34    17    12    1
    35    32    26   ar
    36     9     4    1
@<TRIPOS>MOLECULE
*****
 32 36 0 0 0
SMALL
GASTEIGER

@<TRIPOS>ATOM
      1 O         140.4844  140.8045  165.1635 O.3     1  UNL1       -0.3498
      2 C         141.3079  140.1648  164.0852 C.3     1  UNL1        0.1187
      3 C         142.5411  139.3897  164.4435 C.3     1  UNL1        0.0456
      4 C         143.3646  138.7500  163.3652 C.3     1  UNL1        0.0600
      5 C         143.8547  138.3042  162.0195 C.3     1  UNL1        0.0174
      6 C         142.9061  138.8299  160.9832 C.3     1  UNL1        0.0174
      7 C         141.8298  139.6007  161.6885 C.3     1  UNL1        0.0600
      8 C         140.8982  140.3003  162.6486 C.3     1  UNL1        0.0456
      9 N         142.1131  139.5514  163.1607 N.3     1  UNL1       -0.2739
     10 C         141.2897  140.1910  164.2390 C.3     1  UNL1        0.0896
     11 C         139.7923  140.1276  164.1764 C.3     1  UNL1        0.0896
     12 N         139.0437  139.1836  165.0698 N.3     1  UNL1       -0.2715
     13 C         138.9978  137.7201  164.7441 C.3     1  UNL1        0.0721
     14 C         138.2491  136.7759  165.6375 C.3     1  UNL1        0.0174
     15 C         137.5463  137.2953  166.8566 C.3     1  UNL1        0.0029
     16 C         137.5922  138.7588  167.1824 C.3     1  UNL1        0.0174
     17 C         138.3408  139.7029  166.2890 C.3     1  UNL1        0.0721
     18 C         140.8019  142.1965  165.6236 C.3     1  UNL1        0.1596
     19 F         142.9590  143.1115  171.1471 F       1  UNL1       -0.2042
     20 C         142.4198  142.8828  169.7662 C.ar    1  UNL1        0.1401
     21 C         140.9793  143.1743  169.4657 C.ar    1  UNL1        0.0294
     22 C         140.4401  142.9456  168.0848 C.ar    1  UNL1        0.0007
     23 C         141.3412  142.4252  167.0044 C.ar    1  UNL1        0.0089
     24 C         142.7815  142.1336  167.3049 C.ar    1  UNL1        0.0007
     25 C         143.3208  142.3624  168.6858 C.ar    1  UNL1        0.0294
     26 C         140.5801  143.3596  164.7028 C.ar    1  UNL1        0.0089
     27 C         141.7538  144.1035  164.1379 C.ar    1  UNL1        0.0007
     28 C         141.5320  145.2666  163.2171 C.ar    1  UNL1        0.0294
     29 C         140.1365  145.6859  162.8612 C.ar    1  UNL1        0.1401
     30 F         139.9147  146.8491  161.9404 F       1  UNL1       -0.2042
     31 C         138.9627  144.9421  163.4260 C.ar    1  UNL1        0.0294
     32 C         139.1846  143.7789  164.3469 C.ar    1  UNL1        0.0007
@<TRIPOS>BOND
     1    19    20    1
     2    20    21   ar
     3    21    22   ar
     4    22    23   ar
     5    23    18    1
     6    18     1    1
     7     1     2    1
     8     2     3    1
     9     3     4    1
    10     4     5    1
    11     5     6    1
    12     6     7    1
    13     7     8    1
    14     7     9    1
    15     9    10    1
    16    10    11    1
    17    11    12    1
    18    12    13    1
    19    13    14    1
    20    14    15    1
    21    15    16    1
    22    16    17    1
    23    18    26    1
    24    26    27   ar
    25    27    28   ar
    26    28    29   ar
    27    29    30    1
    28    29    31   ar
    29    31    32   ar
    30    23    24   ar
    31    24    25   ar
    32    25    20   ar
    33     8     2    1
    34    17    12    1
    35    32    26   ar
    36     9     4    1
@<TRIPOS>MOLECULE
*****
 32 36 0 0 0
SMALL
GASTEIGER

@<TRIPOS>ATOM
      1 O         140.0429  141.6280  165.0311 O.3     1  UNL1       -0.3498
      2 C         139.9596  142.7701  164.0621 C.3     1  UNL1        0.1187
      3 C         140.7975  142.7609  162.8180 C.3     1  UNL1        0.0456
      4 C         140.7141  143.9029  161.8491 C.3     1  UNL1        0.0600
      5 C         140.3210  145.1962  161.1987 C.3     1  UNL1        0.0174
      6 C         139.3053  145.8662  162.0760 C.3     1  UNL1        0.0174
      7 C         139.0707  144.9871  163.2685 C.3     1  UNL1        0.0600
      8 C         139.0383  143.9215  164.3374 C.3     1  UNL1        0.0456
      9 N         139.9414  143.7737  163.1283 N.3     1  UNL1       -0.2739
     10 C         140.0248  142.6316  164.0972 C.3     1  UNL1        0.0896
     11 C         138.8161  141.7842  164.3634 C.3     1  UNL1        0.0896
     12 N         138.5287  140.5944  163.4965 N.3     1  UNL1       -0.2715
     13 C         137.8038  140.7720  162.1953 C.3     1  UNL1        0.0721
     14 C         137.5164  139.5822  161.3283 C.3     1  UNL1        0.0174
     15 C         137.9538  138.2147  161.7624 C.3     1  UNL1        0.0029
     16 C         138.6786  138.0369  163.0636 C.3     1  UNL1        0.0174
     17 C         138.9661  139.2267  163.9306 C.3     1  UNL1        0.0721
     18 C         141.2553  141.4685  165.8999 C.3     1  UNL1        0.1596
     19 F         146.7375  141.7102  163.4736 F       1  UNL1       -0.2042
     20 C         145.3669  141.6497  164.0802 C.ar    1  UNL1        0.1401
     21 C         144.8185  142.8375  164.8141 C.ar    1  UNL1        0.0294
     22 C         143.4479  142.7770  165.4206 C.ar    1  UNL1        0.0007
     23 C         142.6258  141.5289  165.2933 C.ar    1  UNL1        0.0089
     24 C         143.1741  140.3412  164.5595 C.ar    1  UNL1        0.0007
     25 C         144.5447  140.4016  163.9529 C.ar    1  UNL1        0.0294
     26 C         141.0970  141.2487  167.3752 C.ar    1  UNL1        0.0089
     27 C         141.6712  140.0201  168.0163 C.ar    1  UNL1        0.0007
     28 C         141.5130  139.8003  169.4916 C.ar    1  UNL1        0.0294
     29 C         140.7806  140.8090  170.3259 C.ar    1  UNL1        0.1401
     30 F         140.6223  140.5892  171.8013 F       1  UNL1       -0.2042
     31 C         140.2064  142.0376  169.6849 C.ar    1  UNL1        0.0294
     32 C         140.3647  142.2574  168.2095 C.ar    1  UNL1        0.0007
@<TRIPOS>BOND
     1    19    20    1
     2    20    21   ar
     3    21    22   ar
     4    22    23   ar
     5    23    18    1
     6    18     1    1
     7     1     2    1
     8     2     3    1
     9     3     4    1
    10     4     5    1
    11     5     6    1
    12     6     7    1
    13     7     8    1
    14     7     9    1
    15     9    10    1
    16    10    11    1
    17    11    12    1
    18    12    13    1
    19    13    14    1
    20    14    15    1
    21    15    16    1
    22    16    17    1
    23    18    26    1
    24    26    27   ar
    25    27    28   ar
    26    28    29   ar
    27    29    30    1
    28    29    31   ar
    29    31    32   ar
    30    23    24   ar
    31    24    25   ar
    32    25    20   ar
    33     8     2    1
    34    17    12    1
    35    32    26   ar
    36     9     4    1
@<TRIPOS>MOLECULE
*****
 32 36 0 0 0
SMALL
GASTEIGER

@<TRIPOS>ATOM
      1 O         140.0386  141.6485  165.0360 O.3     1  UNL1       -0.3498
      2 C         139.9658  142.7866  164.0615 C.3     1  UNL1        0.1187
      3 C         140.8285  142.7796  162.8344 C.3     1  UNL1        0.0456
      4 C         140.7556  143.9177  161.8600 C.3     1  UNL1        0.0600
      5 C         140.3656  145.2055  161.1972 C.3     1  UNL1        0.0174
      6 C         139.3274  145.8706  162.0516 C.3     1  UNL1        0.0174
      7 C         139.0758  144.9938  163.2423 C.3     1  UNL1        0.0600
      8 C         139.0303  143.9316  164.3141 C.3     1  UNL1        0.0456
      9 N         139.9585  143.7868  163.1239 N.3     1  UNL1       -0.2739
     10 C         140.0314  142.6487  164.0984 C.3     1  UNL1        0.0896
     11 C         138.8171  141.8085  164.3624 C.3     1  UNL1        0.0896
     12 N         138.5232  140.6216  163.4936 N.3     1  UNL1       -0.2715
     13 C         137.8093  140.8066  162.1874 C.3     1  UNL1        0.0721
     14 C         137.5153  139.6198  161.3186 C.3     1  UNL1        0.0174
     15 C         137.9351  138.2478  161.7560 C.3     1  UNL1        0.0029
     16 C         138.6490  138.0626  163.0622 C.3     1  UNL1        0.0174
     17 C         138.9430  139.2495  163.9310 C.3     1  UNL1        0.0721
     18 C         141.2514  141.4794  165.9024 C.3     1  UNL1        0.1596
     19 F         140.6221  140.5797  171.8011 F       1  UNL1       -0.2042
     20 C         140.7795  140.8046  170.3264 C.ar    1  UNL1        0.1401
     21 C         140.2065  142.0363  169.6902 C.ar    1  UNL1        0.0294
     22 C         140.3638  142.2612  168.2156 C.ar    1  UNL1        0.0007
     23 C         141.0941  141.2545  167.3770 C.ar    1  UNL1        0.0089
     24 C         141.6670  140.0228  168.0131 C.ar    1  UNL1        0.0007
     25 C         141.5097  139.7979  169.4878 C.ar    1  UNL1        0.0294
     26 C         142.6213  141.5353  165.2942 C.ar    1  UNL1        0.0089
     27 C         143.1606  140.3497  164.5502 C.ar    1  UNL1        0.0007
     28 C         144.5306  140.4056  163.9419 C.ar    1  UNL1        0.0294
     29 C         145.3614  141.6471  164.0776 C.ar    1  UNL1        0.1401
     30 F         146.7314  141.7030  163.4693 F       1  UNL1       -0.2042
     31 C         144.8222  142.8328  164.8215 C.ar    1  UNL1        0.0294
     32 C         143.4521  142.7768  165.4298 C.ar    1  UNL1        0.0007
@<TRIPOS>BOND
     1    19    20    1
     2    20    21   ar
     3    21    22   ar
     4    22    23   ar
     5    23    18    1
     6    18     1    1
     7     1     2    1
     8     2     3    1
     9     3     4    1
    10     4     5    1
    11     5     6    1
    12     6     7    1
    13     7     8    1
    14     7     9    1
    15     9    10    1
    16    10    11    1
    17    11    12    1
    18    12    13    1
    19    13    14    1
    20    14    15    1
    21    15    16    1
    22    16    17    1
    23    18    26    1
    24    26    27   ar
    25    27    28   ar
    26    28    29   ar
    27    29    30    1
    28    29    31   ar
    29    31    32   ar
    30    23    24   ar
    31    24    25   ar
    32    25    20   ar
    33     8     2    1
    34    17    12    1
    35    32    26   ar
    36     9     4    1
