@<TRIPOS>MOLECULE
*****
 19 20 0 0 0
SMALL
GASTEIGER

@<TRIPOS>ATOM
      1 C         141.3376  144.5193  164.0750 C.ar    1  UNL1        0.0282
      2 C         142.4921  145.4272  163.7702 C.ar    1  UNL1        0.0001
      3 C         143.8942  144.9813  164.0618 C.ar    1  UNL1       -0.0001
      4 C         144.1420  143.6275  164.6582 C.ar    1  UNL1        0.0031
      5 C         142.9876  142.7196  164.9630 C.ar    1  UNL1        0.0372
      6 C         141.5854  143.1655  164.6714 C.ar    1  UNL1        0.1426
      7 C         139.9354  144.9652  163.7834 C.3     1  UNL1        0.0987
      8 C         137.6590  144.2156  164.7862 C.3     1  UNL1        0.0861
      9 N         138.9210  145.0200  164.8870 N.3     1  UNL1       -0.2925
     10 H         139.3953  144.7183  165.7381 H       1  UNL1        0.1236
     11 O         140.4310  142.2575  164.9763 O.3     1  UNL1       -0.4537
     12 C         140.2173  141.7598  166.3750 C.ar    1  UNL1        0.1462
     13 C         139.7933  140.3401  166.6094 C.ar    1  UNL1        0.0384
     14 C         139.5797  139.8423  168.0081 C.ar    1  UNL1        0.0154
     15 C         139.7900  140.7642  169.1726 C.ar    1  UNL1        0.0684
     16 CL        139.5764  140.2664  170.5713 Cl      1  UNL1       -0.0814
     17 C         140.2140  142.1838  168.9383 C.ar    1  UNL1        0.0712
     18 CL        140.4243  143.1056  170.1028 Cl      1  UNL1       -0.0813
     19 C         140.4276  142.6816  167.5395 C.ar    1  UNL1        0.0497
@<TRIPOS>BOND
     1     8     9    1
     2     9     7    1
     3     7     1    1
     4     1     2   ar
     5     2     3   ar
     6     3     4   ar
     7     4     5   ar
     8     5     6   ar
     9     6    11    1
    10    11    12    1
    11    12    13   ar
    12    13    14   ar
    13    14    15   ar
    14    15    16    1
    15    15    17   ar
    16    17    18    1
    17    17    19   ar
    18     6     1   ar
    19    19    12   ar
    20     9    10    1
@<TRIPOS>MOLECULE
*****
 19 20 0 0 0
SMALL
GASTEIGER

@<TRIPOS>ATOM
      1 C         138.4359  141.8798  164.1756 C.ar    1  UNL1        0.0282
      2 C         137.4925  142.7898  163.4462 C.ar    1  UNL1        0.0001
      3 C         137.8312  144.2412  163.2765 C.ar    1  UNL1       -0.0001
      4 C         139.1132  144.7826  163.8362 C.ar    1  UNL1        0.0031
      5 C         140.0565  143.8726  164.5656 C.ar    1  UNL1        0.0372
      6 C         139.7179  142.4212  164.7352 C.ar    1  UNL1        0.1426
      7 C         138.0972  140.4284  164.3452 C.3     1  UNL1        0.0987
      8 C         138.4499  138.3098  165.8071 C.3     1  UNL1        0.0861
      9 N         138.2064  139.7857  165.6961 N.3     1  UNL1       -0.2925
     10 H         138.9753  140.2483  166.1810 H       1  UNL1        0.1236
     11 O         140.6613  141.5112  165.4646 O.3     1  UNL1       -0.4537
     12 C         141.2482  141.9361  166.7780 C.ar    1  UNL1        0.1462
     13 C         142.7325  141.8834  166.9884 C.ar    1  UNL1        0.0384
     14 C         143.3194  142.3083  168.3018 C.ar    1  UNL1        0.0154
     15 C         142.4221  142.7859  169.4048 C.ar    1  UNL1        0.0684
     16 CL        143.0089  143.2107  170.7182 Cl      1  UNL1       -0.0814
     17 C         140.9378  142.8386  169.1945 C.ar    1  UNL1        0.0712
     18 CL        140.0405  143.3162  170.2975 Cl      1  UNL1       -0.0813
     19 C         140.3509  142.4137  167.8810 C.ar    1  UNL1        0.0497
@<TRIPOS>BOND
     1     8     9    1
     2     9     7    1
     3     7     1    1
     4     1     2   ar
     5     2     3   ar
     6     3     4   ar
     7     4     5   ar
     8     5     6   ar
     9     6    11    1
    10    11    12    1
    11    12    13   ar
    12    13    14   ar
    13    14    15   ar
    14    15    16    1
    15    15    17   ar
    16    17    18    1
    17    17    19   ar
    18     6     1   ar
    19    19    12   ar
    20     9    10    1
@<TRIPOS>MOLECULE
*****
 19 20 0 0 0
SMALL
GASTEIGER

@<TRIPOS>ATOM
      1 C         138.2429  141.7450  163.9354 C.ar    1  UNL1        0.0282
      2 C         137.8917  143.1140  163.4327 C.ar    1  UNL1        0.0001
      3 C         138.4241  144.3293  164.1325 C.ar    1  UNL1       -0.0001
      4 C         139.3076  144.1756  165.3348 C.ar    1  UNL1        0.0031
      5 C         139.6588  142.8067  165.8375 C.ar    1  UNL1        0.0372
      6 C         139.1264  141.5914  165.1377 C.ar    1  UNL1        0.1426
      7 C         137.7105  140.5297  163.2356 C.3     1  UNL1        0.0987
      8 C         137.5089  139.7418  160.7681 C.3     1  UNL1        0.0861
      9 N         137.0871  140.6591  161.8775 N.3     1  UNL1       -0.2925
     10 H         136.0829  140.5295  162.0010 H       1  UNL1        0.1236
     11 O         139.4776  140.2224  165.6405 O.3     1  UNL1       -0.4537
     12 C         140.3453  140.0690  166.8543 C.ar    1  UNL1        0.1462
     13 C         141.8247  139.8757  166.6991 C.ar    1  UNL1        0.0384
     14 C         142.6924  139.7223  167.9130 C.ar    1  UNL1        0.0154
     15 C         142.0808  139.7620  169.2820 C.ar    1  UNL1        0.0684
     16 CL        142.9485  139.6086  170.4959 Cl      1  UNL1       -0.0814
     17 C         140.6015  139.9552  169.4372 C.ar    1  UNL1        0.0712
     18 CL        139.9898  139.9950  170.8063 Cl      1  UNL1       -0.0813
     19 C         139.7337  140.1087  168.2234 C.ar    1  UNL1        0.0497
@<TRIPOS>BOND
     1     8     9    1
     2     9     7    1
     3     7     1    1
     4     1     2   ar
     5     2     3   ar
     6     3     4   ar
     7     4     5   ar
     8     5     6   ar
     9     6    11    1
    10    11    12    1
    11    12    13   ar
    12    13    14   ar
    13    14    15   ar
    14    15    16    1
    15    15    17   ar
    16    17    18    1
    17    17    19   ar
    18     6     1   ar
    19    19    12   ar
    20     9    10    1
@<TRIPOS>MOLECULE
*****
 19 20 0 0 0
SMALL
GASTEIGER

@<TRIPOS>ATOM
      1 C         142.2003  141.6679  167.8293 C.ar    1  UNL1        0.0282
      2 C         143.0914  141.9121  169.0109 C.ar    1  UNL1        0.0001
      3 C         142.6409  142.8224  170.1147 C.ar    1  UNL1       -0.0001
      4 C         141.2993  143.4887  170.0368 C.ar    1  UNL1        0.0031
      5 C         140.4082  143.2445  168.8552 C.ar    1  UNL1        0.0372
      6 C         140.8587  142.3342  167.7515 C.ar    1  UNL1        0.1426
      7 C         142.6508  140.7575  166.7256 C.3     1  UNL1        0.0987
      8 C         141.4453  139.4167  164.8551 C.3     1  UNL1        0.0861
      9 N         141.7870  139.6063  166.3033 N.3     1  UNL1       -0.2925
     10 H         142.2604  138.7557  166.6079 H       1  UNL1        0.1236
     11 O         139.9675  142.0900  166.5698 O.3     1  UNL1       -0.4537
     12 C         139.9154  143.0877  165.4509 C.ar    1  UNL1        0.1462
     13 C         138.5928  143.5054  164.8795 C.ar    1  UNL1        0.0384
     14 C         138.5407  144.5030  163.7606 C.ar    1  UNL1        0.0154
     15 C         139.8111  145.0830  163.2131 C.ar    1  UNL1        0.0684
     16 CL        139.7590  146.0806  162.0942 Cl      1  UNL1       -0.0814
     17 C         141.1336  144.6653  163.7845 C.ar    1  UNL1        0.0712
     18 CL        142.4040  145.2453  163.2370 Cl      1  UNL1       -0.0813
     19 C         141.1858  143.6676  164.9034 C.ar    1  UNL1        0.0497
@<TRIPOS>BOND
     1     8     9    1
     2     9     7    1
     3     7     1    1
     4     1     2   ar
     5     2     3   ar
     6     3     4   ar
     7     4     5   ar
     8     5     6   ar
     9     6    11    1
    10    11    12    1
    11    12    13   ar
    12    13    14   ar
    13    14    15   ar
    14    15    16    1
    15    15    17   ar
    16    17    18    1
    17    17    19   ar
    18     6     1   ar
    19    19    12   ar
    20     9    10    1
@<TRIPOS>MOLECULE
*****
 19 20 0 0 0
SMALL
GASTEIGER

@<TRIPOS>ATOM
      1 C         138.5094  141.7252  164.3495 C.ar    1  UNL1        0.0282
      2 C         137.5296  142.7553  163.8712 C.ar    1  UNL1        0.0001
      3 C         137.7776  144.2095  164.1431 C.ar    1  UNL1       -0.0001
      4 C         139.0052  144.6335  164.8935 C.ar    1  UNL1        0.0031
      5 C         139.9849  143.6033  165.3718 C.ar    1  UNL1        0.0372
      6 C         139.7370  142.1491  165.0998 C.ar    1  UNL1        0.1426
      7 C         138.2614  140.2710  164.0775 C.3     1  UNL1        0.0987
      8 C         139.0407  137.9873  165.0405 C.3     1  UNL1        0.0861
      9 N         138.2984  139.2805  165.2033 N.3     1  UNL1       -0.2925
     10 H         138.7126  139.7591  166.0032 H       1  UNL1        0.1236
     11 O         140.7168  141.1190  165.5782 O.3     1  UNL1       -0.4537
     12 C         141.0591  141.0294  167.0359 C.ar    1  UNL1        0.1462
     13 C         140.1808  140.2458  167.9658 C.ar    1  UNL1        0.0384
     14 C         140.5231  140.1562  169.4234 C.ar    1  UNL1        0.0154
     15 C         141.7437  140.8501  169.9512 C.ar    1  UNL1        0.0684
     16 CL        142.0860  140.7605  171.4089 Cl      1  UNL1       -0.0814
     17 C         142.6220  141.6336  169.0214 C.ar    1  UNL1        0.0712
     18 CL        143.8426  142.3276  169.5493 Cl      1  UNL1       -0.0813
     19 C         142.2797  141.7233  167.5637 C.ar    1  UNL1        0.0497
@<TRIPOS>BOND
     1     8     9    1
     2     9     7    1
     3     7     1    1
     4     1     2   ar
     5     2     3   ar
     6     3     4   ar
     7     4     5   ar
     8     5     6   ar
     9     6    11    1
    10    11    12    1
    11    12    13   ar
    12    13    14   ar
    13    14    15   ar
    14    15    16    1
    15    15    17   ar
    16    17    18    1
    17    17    19   ar
    18     6     1   ar
    19    19    12   ar
    20     9    10    1
@<TRIPOS>MOLECULE
*****
 19 20 0 0 0
SMALL
GASTEIGER

@<TRIPOS>ATOM
      1 C         140.3553  140.5713  167.6100 C.ar    1  UNL1        0.0282
      2 C         139.5221  140.1597  168.7875 C.ar    1  UNL1        0.0001
      3 C         139.3328  141.1027  169.9386 C.ar    1  UNL1       -0.0001
      4 C         139.9767  142.4572  169.9122 C.ar    1  UNL1        0.0031
      5 C         140.8099  142.8687  168.7348 C.ar    1  UNL1        0.0372
      6 C         140.9991  141.9258  167.5837 C.ar    1  UNL1        0.1426
      7 C         140.5445  139.6283  166.4589 C.3     1  UNL1        0.0987
      8 C         143.0202  138.8467  166.5588 C.3     1  UNL1        0.0861
      9 N         141.8915  139.4945  165.8128 N.3     1  UNL1       -0.2925
     10 H         141.7557  138.9550  164.9578 H       1  UNL1        0.1236
     11 O         141.8324  142.3374  166.4062 O.3     1  UNL1       -0.4537
     12 C         141.2437  143.2135  165.3404 C.ar    1  UNL1        0.1462
     13 C         142.1423  144.0307  164.4602 C.ar    1  UNL1        0.0384
     14 C         141.5537  144.9068  163.3945 C.ar    1  UNL1        0.0154
     15 C         140.0664  144.9658  163.2089 C.ar    1  UNL1        0.0684
     16 CL        139.4777  145.8419  162.1431 Cl      1  UNL1       -0.0814
     17 C         139.1677  144.1486  164.0890 C.ar    1  UNL1        0.0712
     18 CL        137.6804  144.2076  163.9034 Cl      1  UNL1       -0.0813
     19 C         139.7564  143.2724  165.1548 C.ar    1  UNL1        0.0497
@<TRIPOS>BOND
     1     8     9    1
     2     9     7    1
     3     7     1    1
     4     1     2   ar
     5     2     3   ar
     6     3     4   ar
     7     4     5   ar
     8     5     6   ar
     9     6    11    1
    10    11    12    1
    11    12    13   ar
    12    13    14   ar
    13    14    15   ar
    14    15    16    1
    15    15    17   ar
    16    17    18    1
    17    17    19   ar
    18     6     1   ar
    19    19    12   ar
    20     9    10    1
@<TRIPOS>MOLECULE
*****
 19 20 0 0 0
SMALL
GASTEIGER

@<TRIPOS>ATOM
      1 C         139.5419  140.3905  167.6398 C.ar    1  UNL1        0.0282
      2 C         139.2894  140.2169  169.1081 C.ar    1  UNL1        0.0001
      3 C         139.6852  141.2977  170.0701 C.ar    1  UNL1       -0.0001
      4 C         140.3333  142.5520  169.5637 C.ar    1  UNL1        0.0031
      5 C         140.5858  142.7256  168.0954 C.ar    1  UNL1        0.0372
      6 C         140.1901  141.6448  167.1334 C.ar    1  UNL1        0.1426
      7 C         139.1462  139.3097  166.6778 C.3     1  UNL1        0.0987
      8 C         138.6826  139.1835  164.1246 C.3     1  UNL1        0.0861
      9 N         138.2810  139.6367  165.4970 N.3     1  UNL1       -0.2925
     10 H         137.3632  139.2327  165.6836 H       1  UNL1        0.1236
     11 O         140.4426  141.8185  165.6650 O.3     1  UNL1       -0.4537
     12 C         141.8469  141.8019  165.1384 C.ar    1  UNL1        0.1462
     13 C         142.4643  143.0624  164.6090 C.ar    1  UNL1        0.0384
     14 C         143.8687  143.0458  164.0823 C.ar    1  UNL1        0.0154
     15 C         144.6558  141.7689  164.0851 C.ar    1  UNL1        0.0684
     16 CL        146.0602  141.7524  163.5584 Cl      1  UNL1       -0.0814
     17 C         144.0385  140.5085  164.6144 C.ar    1  UNL1        0.0712
     18 CL        144.8255  139.2316  164.6171 Cl      1  UNL1       -0.0813
     19 C         142.6340  140.5250  165.1411 C.ar    1  UNL1        0.0497
@<TRIPOS>BOND
     1     8     9    1
     2     9     7    1
     3     7     1    1
     4     1     2   ar
     5     2     3   ar
     6     3     4   ar
     7     4     5   ar
     8     5     6   ar
     9     6    11    1
    10    11    12    1
    11    12    13   ar
    12    13    14   ar
    13    14    15   ar
    14    15    16    1
    15    15    17   ar
    16    17    18    1
    17    17    19   ar
    18     6     1   ar
    19    19    12   ar
    20     9    10    1
@<TRIPOS>MOLECULE
*****
 19 20 0 0 0
SMALL
GASTEIGER

@<TRIPOS>ATOM
      1 C         140.2194  137.9773  164.8313 C.ar    1  UNL1        0.0282
      2 C         138.8228  137.5647  165.1906 C.ar    1  UNL1        0.0001
      3 C         138.0925  138.2710  166.2940 C.ar    1  UNL1       -0.0001
      4 C         138.7587  139.3900  167.0383 C.ar    1  UNL1        0.0031
      5 C         140.1553  139.8026  166.6791 C.ar    1  UNL1        0.0372
      6 C         140.8857  139.0963  165.5756 C.ar    1  UNL1        0.1426
      7 C         140.9498  137.2710  163.7278 C.3     1  UNL1        0.0987
      8 C         142.8853  138.0177  162.1638 C.3     1  UNL1        0.0861
      9 N         141.4320  138.0413  162.5345 N.3     1  UNL1       -0.2925
     10 H         140.9167  137.6881  161.7282 H       1  UNL1        0.1236
     11 O         142.2824  139.5090  165.2164 O.3     1  UNL1       -0.4537
     12 C         142.5602  140.9180  164.7834 C.ar    1  UNL1        0.1462
     13 C         141.7969  141.5152  163.6385 C.ar    1  UNL1        0.0384
     14 C         142.0748  142.9242  163.2056 C.ar    1  UNL1        0.0154
     15 C         143.1158  143.7361  163.9176 C.ar    1  UNL1        0.0684
     16 CL        143.3936  145.1451  163.4847 Cl      1  UNL1       -0.0814
     17 C         143.8791  143.1390  165.0625 C.ar    1  UNL1        0.0712
     18 CL        144.9201  143.9510  165.7745 Cl      1  UNL1       -0.0813
     19 C         143.6013  141.7299  165.4955 C.ar    1  UNL1        0.0497
@<TRIPOS>BOND
     1     8     9    1
     2     9     7    1
     3     7     1    1
     4     1     2   ar
     5     2     3   ar
     6     3     4   ar
     7     4     5   ar
     8     5     6   ar
     9     6    11    1
    10    11    12    1
    11    12    13   ar
    12    13    14   ar
    13    14    15   ar
    14    15    16    1
    15    15    17   ar
    16    17    18    1
    17    17    19   ar
    18     6     1   ar
    19    19    12   ar
    20     9    10    1
@<TRIPOS>MOLECULE
*****
 19 20 0 0 0
SMALL
GASTEIGER

@<TRIPOS>ATOM
      1 C         140.2330  140.3674  168.1963 C.ar    1  UNL1        0.0282
      2 C         139.7519  141.0488  169.4429 C.ar    1  UNL1        0.0001
      3 C         140.6368  141.1119  170.6524 C.ar    1  UNL1       -0.0001
      4 C         142.0029  140.4935  170.6153 C.ar    1  UNL1        0.0031
      5 C         142.4840  139.8120  169.3687 C.ar    1  UNL1        0.0372
      6 C         141.5991  139.7490  168.1592 C.ar    1  UNL1        0.1426
      7 C         139.3481  140.3043  166.9868 C.3     1  UNL1        0.0987
      8 C         138.5915  139.0514  164.8402 C.3     1  UNL1        0.0861
      9 N         139.2767  139.0453  166.1746 N.3     1  UNL1       -0.2925
     10 H         140.2378  138.7457  166.0106 H       1  UNL1        0.1236
     11 O         142.0803  139.0675  166.9125 O.3     1  UNL1       -0.4537
     12 C         143.0462  139.7653  166.0015 C.ar    1  UNL1        0.1462
     13 C         143.9924  138.9646  165.1565 C.ar    1  UNL1        0.0384
     14 C         144.9582  139.6624  164.2454 C.ar    1  UNL1        0.0154
     15 C         144.9781  141.1609  164.1793 C.ar    1  UNL1        0.0684
     16 CL        145.9440  141.8587  163.2682 Cl      1  UNL1       -0.0814
     17 C         144.0320  141.9615  165.0242 C.ar    1  UNL1        0.0712
     18 CL        144.0518  143.4599  164.9581 Cl      1  UNL1       -0.0813
     19 C         143.0660  141.2637  165.9353 C.ar    1  UNL1        0.0497
@<TRIPOS>BOND
     1     8     9    1
     2     9     7    1
     3     7     1    1
     4     1     2   ar
     5     2     3   ar
     6     3     4   ar
     7     4     5   ar
     8     5     6   ar
     9     6    11    1
    10    11    12    1
    11    12    13   ar
    12    13    14   ar
    13    14    15   ar
    14    15    16    1
    15    15    17   ar
    16    17    18    1
    17    17    19   ar
    18     6     1   ar
    19    19    12   ar
    20     9    10    1
