@<TRIPOS>MOLECULE
*****
 36 39 0 0 0
SMALL
GASTEIGER

@<TRIPOS>ATOM
      1 C         142.3231  139.6045  167.2478 C.3     1  UNL1        0.2722
      2 C         141.2242  140.3600  166.5610 C.2     1  UNL1        0.2701
      3 O         139.8193  139.8355  166.5938 O.2     1  UNL1       -0.2707
      4 N         141.5303  141.6400  165.8414 N.am    1  UNL1       -0.2663
      5 H         142.4524  141.9843  165.8199 H       1  UNL1        0.1564
      6 C         140.4315  142.3956  165.1547 C.ar    1  UNL1        0.1344
      7 C         139.8137  143.5901  165.8191 C.ar    1  UNL1        0.0368
      8 C         138.7149  144.3456  165.1323 C.ar    1  UNL1        0.0341
      9 C         138.2338  143.9066  163.7810 C.ar    1  UNL1        0.1593
     10 F         137.1349  144.6621  163.0942 F       1  UNL1       -0.2025
     11 C         138.8515  142.7121  163.1166 C.ar    1  UNL1        0.1298
     12 N         139.9504  141.9565  163.8035 N.ar    1  UNL1       -0.2267
     13 C         142.4867  139.7056  168.7354 C.3     1  UNL1        0.1951
     14 O         141.3312  139.3944  169.6399 O.3     1  UNL1       -0.3493
     15 C         138.9757  140.4442  169.9557 C.3     1  UNL1        0.0347
     16 C         140.4614  140.5032  170.1539 C.3     1  UNL1        0.1446
     17 C         141.0773  141.6708  170.8662 C.3     1  UNL1        0.1666
     18 O         140.4543  142.1941  172.1263 O.3     1  UNL1       -0.3795
     19 H         139.5825  142.5684  171.9247 H       1  UNL1        0.2105
     20 O         143.2585  138.7478  166.4470 O.3     1  UNL1       -0.4517
     21 C         143.5198  139.0680  165.0050 C.ar    1  UNL1        0.2312
     22 N         144.6473  139.9845  164.6326 N.ar    1  UNL1       -0.1892
     23 C         144.9086  140.3046  163.1907 C.ar    1  UNL1        0.2029
     24 N         144.0424  139.7083  162.1211 N.ar    1  UNL1       -0.2045
     25 C         142.9148  138.7918  162.4935 C.ar    1  UNL1        0.1732
     26 C         142.6535  138.4717  163.9354 C.ar    1  UNL1        0.1099
     27 C         141.4780  137.5420  163.9982 C.ar    1  UNL1        0.1283
     28 N         141.0127  137.2877  162.5951 N.ar    1  UNL1       -0.1606
     29 N         141.9008  138.0601  161.6651 N.ar    1  UNL1       -0.1936
     30 C         141.7936  138.0947  160.1694 C.ar    1  UNL1        0.1759
     31 N         142.8230  137.4009  159.3274 N.ar    1  UNL1       -0.2242
     32 C         142.7158  137.4355  157.8316 C.ar    1  UNL1        0.1006
     33 C         141.5791  138.1639  157.1778 C.ar    1  UNL1        0.0217
     34 C         140.5497  138.8577  158.0198 C.ar    1  UNL1        0.0161
     35 C         140.6569  138.8231  159.5155 C.ar    1  UNL1        0.0935
     36 CL        139.6275  139.5169  160.3574 Cl      1  UNL1       -0.0790
@<TRIPOS>BOND
     1    16    15    1
     2    16    17    1
     3    17    18    1
     4    16    14    1
     5    14    13    1
     6     1    13    1
     7     1    20    1
     8    20    21    1
     9    21    22   ar
    10    22    23   ar
    11    23    24   ar
    12    24    25   ar
    13    25    26   ar
    14    26    27   ar
    15    27    28   ar
    16    28    29   ar
    17    29    30    1
    18    30    31   ar
    19    31    32   ar
    20    32    33   ar
    21    33    34   ar
    22    34    35   ar
    23    35    36    1
    24     1     2    1
    25     2     3    2
    26     2     4   am
    27     4     6    1
    28     6     7   ar
    29     7     8   ar
    30     8     9   ar
    31     9    10    1
    32     9    11   ar
    33    11    12   ar
    34    26    21   ar
    35    35    30   ar
    36    12     6   ar
    37    29    25   ar
    38    18    19    1
    39     4     5    1
@<TRIPOS>MOLECULE
*****
 36 39 0 0 0
SMALL
GASTEIGER

@<TRIPOS>ATOM
      1 C         137.7236  140.8068  161.5274 C.3     1  UNL1        0.2722
      2 C         138.4626  141.6780  160.5552 C.2     1  UNL1        0.2701
      3 O         138.0823  141.6728  159.1042 O.2     1  UNL1       -0.2707
      4 N         139.5819  142.5543  161.0340 N.am    1  UNL1       -0.2663
      5 H         139.8315  142.5577  161.9863 H       1  UNL1        0.1564
      6 C         140.3209  143.4254  160.0618 C.ar    1  UNL1        0.1344
      7 C         141.6763  143.0152  159.5674 C.ar    1  UNL1        0.0368
      8 C         142.4153  143.8863  158.5952 C.ar    1  UNL1        0.0341
      9 C         141.7988  145.1676  158.1175 C.ar    1  UNL1        0.1593
     10 F         142.5377  146.0387  157.1454 F       1  UNL1       -0.2025
     11 C         140.4433  145.5778  158.6120 C.ar    1  UNL1        0.1298
     12 N         139.7044  144.7067  159.5842 N.ar    1  UNL1       -0.2267
     13 C         137.6491  139.3259  161.3010 C.3     1  UNL1        0.1951
     14 O         138.7518  138.6231  160.5661 O.3     1  UNL1       -0.3493
     15 C         141.3459  138.7503  160.6342 C.3     1  UNL1        0.0347
     16 C         140.0490  138.3315  161.2607 C.3     1  UNL1        0.1446
     17 C         140.0492  137.6210  162.5818 C.3     1  UNL1        0.1666
     18 O         141.2123  136.7563  162.9681 O.3     1  UNL1       -0.3795
     19 H         141.2588  135.9920  162.3727 H       1  UNL1        0.2105
     20 O         137.0593  141.4167  162.7260 O.3     1  UNL1       -0.4517
     21 C         137.8617  142.2373  163.6919 C.ar    1  UNL1        0.2312
     22 N         137.9251  143.7280  163.5376 N.ar    1  UNL1       -0.1892
     23 C         138.7275  144.5484  164.5034 C.ar    1  UNL1        0.2029
     24 N         139.4666  143.8783  165.6235 N.ar    1  UNL1       -0.2045
     25 C         139.4033  142.3876  165.7778 C.ar    1  UNL1        0.1732
     26 C         138.6008  141.5671  164.8120 C.ar    1  UNL1        0.1099
     27 C         138.7239  140.1270  165.2132 C.ar    1  UNL1        0.1283
     28 N         139.6024  140.0575  166.4270 N.ar    1  UNL1       -0.1606
     29 N         140.0223  141.4546  166.7759 N.ar    1  UNL1       -0.1936
     30 C         140.9060  141.8495  167.9218 C.ar    1  UNL1        0.1759
     31 N         140.3200  142.0424  169.2891 N.ar    1  UNL1       -0.2242
     32 C         141.2038  142.4373  170.4350 C.ar    1  UNL1        0.1006
     33 C         142.6735  142.6392  170.2137 C.ar    1  UNL1        0.0217
     34 C         143.2595  142.4463  168.8464 C.ar    1  UNL1        0.0161
     35 C         142.3758  142.0514  167.7005 C.ar    1  UNL1        0.0935
     36 CL        142.9618  141.8585  166.3333 Cl      1  UNL1       -0.0790
@<TRIPOS>BOND
     1    16    15    1
     2    16    17    1
     3    17    18    1
     4    16    14    1
     5    14    13    1
     6     1    13    1
     7     1    20    1
     8    20    21    1
     9    21    22   ar
    10    22    23   ar
    11    23    24   ar
    12    24    25   ar
    13    25    26   ar
    14    26    27   ar
    15    27    28   ar
    16    28    29   ar
    17    29    30    1
    18    30    31   ar
    19    31    32   ar
    20    32    33   ar
    21    33    34   ar
    22    34    35   ar
    23    35    36    1
    24     1     2    1
    25     2     3    2
    26     2     4   am
    27     4     6    1
    28     6     7   ar
    29     7     8   ar
    30     8     9   ar
    31     9    10    1
    32     9    11   ar
    33    11    12   ar
    34    26    21   ar
    35    35    30   ar
    36    12     6   ar
    37    29    25   ar
    38    18    19    1
    39     4     5    1
@<TRIPOS>MOLECULE
*****
 36 39 0 0 0
SMALL
GASTEIGER

@<TRIPOS>ATOM
      1 C         141.3125  144.8188  160.3152 C.3     1  UNL1        0.2722
      2 C         142.0931  143.5499  160.4908 C.2     1  UNL1        0.2701
      3 O         143.5907  143.5735  160.4109 O.2     1  UNL1       -0.2707
      4 N         141.3759  142.2575  160.7463 N.am    1  UNL1       -0.2663
      5 H         140.3929  142.2420  160.7988 H       1  UNL1        0.1564
      6 C         142.1564  140.9886  160.9219 C.ar    1  UNL1        0.1344
      7 C         142.5722  140.5477  162.2940 C.ar    1  UNL1        0.0368
      8 C         143.3527  139.2789  162.4697 C.ar    1  UNL1        0.0341
      9 C         143.7175  138.4509  161.2731 C.ar    1  UNL1        0.1593
     10 F         144.4979  137.1821  161.4488 F       1  UNL1       -0.2025
     11 C         143.3016  138.8919  159.9010 C.ar    1  UNL1        0.1298
     12 N         142.5211  140.1608  159.7255 N.ar    1  UNL1       -0.2267
     13 C         141.0299  145.3409  158.9377 C.3     1  UNL1        0.1951
     14 O         139.8321  144.8494  158.1804 O.3     1  UNL1       -0.3493
     15 C         140.5288  142.5764  157.1325 C.3     1  UNL1        0.0347
     16 C         139.6079  143.3766  158.0053 C.3     1  UNL1        0.1446
     17 C         138.4630  142.7040  158.7029 C.3     1  UNL1        0.1666
     18 O         138.2622  142.9015  160.1762 O.3     1  UNL1       -0.3795
     19 H         139.0031  142.5038  160.6597 H       1  UNL1        0.2105
     20 O         140.8145  145.5654  161.5171 O.3     1  UNL1       -0.4517
     21 C         139.9836  144.8595  162.5473 C.ar    1  UNL1        0.2312
     22 N         138.4885  144.8510  162.4277 N.ar    1  UNL1       -0.1892
     23 C         137.6576  144.1452  163.4579 C.ar    1  UNL1        0.2029
     24 N         138.3220  143.4477  164.6078 N.ar    1  UNL1       -0.2045
     25 C         139.8171  143.4562  164.7275 C.ar    1  UNL1        0.1732
     26 C         140.6480  144.1621  163.6972 C.ar    1  UNL1        0.1099
     27 C         142.0906  144.0019  164.0759 C.ar    1  UNL1        0.1283
     28 N         142.1513  143.1971  165.3402 N.ar    1  UNL1       -0.1606
     29 N         140.7462  142.8598  165.7429 N.ar    1  UNL1       -0.1936
     30 C         140.3413  142.0655  166.9492 C.ar    1  UNL1        0.1759
     31 N         140.4667  142.6648  168.3185 N.ar    1  UNL1       -0.2242
     32 C         140.0618  141.8706  169.5248 C.ar    1  UNL1        0.1006
     33 C         139.5314  140.4770  169.3619 C.ar    1  UNL1        0.0217
     34 C         139.4060  139.8777  167.9925 C.ar    1  UNL1        0.0161
     35 C         139.8109  140.6719  166.7862 C.ar    1  UNL1        0.0935
     36 CL        139.6855  140.0726  165.4169 Cl      1  UNL1       -0.0790
@<TRIPOS>BOND
     1    16    15    1
     2    16    17    1
     3    17    18    1
     4    16    14    1
     5    14    13    1
     6     1    13    1
     7     1    20    1
     8    20    21    1
     9    21    22   ar
    10    22    23   ar
    11    23    24   ar
    12    24    25   ar
    13    25    26   ar
    14    26    27   ar
    15    27    28   ar
    16    28    29   ar
    17    29    30    1
    18    30    31   ar
    19    31    32   ar
    20    32    33   ar
    21    33    34   ar
    22    34    35   ar
    23    35    36    1
    24     1     2    1
    25     2     3    2
    26     2     4   am
    27     4     6    1
    28     6     7   ar
    29     7     8   ar
    30     8     9   ar
    31     9    10    1
    32     9    11   ar
    33    11    12   ar
    34    26    21   ar
    35    35    30   ar
    36    12     6   ar
    37    29    25   ar
    38    18    19    1
    39     4     5    1
@<TRIPOS>MOLECULE
*****
 36 39 0 0 0
SMALL
GASTEIGER

@<TRIPOS>ATOM
      1 C         139.3977  138.0736  161.6731 C.3     1  UNL1        0.2722
      2 C         140.1105  138.3933  160.3926 C.2     1  UNL1        0.2701
      3 O         139.3274  138.8002  159.1797 O.2     1  UNL1       -0.2707
      4 N         141.6064  138.3061  160.3250 N.am    1  UNL1       -0.2663
      5 H         142.1204  138.0391  161.1211 H       1  UNL1        0.1564
      6 C         142.3192  138.6259  159.0446 C.ar    1  UNL1        0.1344
      7 C         142.3352  137.6272  157.9254 C.ar    1  UNL1        0.0368
      8 C         143.0480  137.9469  156.6450 C.ar    1  UNL1        0.0341
      9 C         143.7450  139.2654  156.4836 C.ar    1  UNL1        0.1593
     10 F         144.4578  139.5851  155.2032 F       1  UNL1       -0.2025
     11 C         143.7290  140.2641  157.6027 C.ar    1  UNL1        0.1298
     12 N         143.0162  139.9443  158.8832 N.ar    1  UNL1       -0.2267
     13 C         137.9754  138.5081  161.8685 C.3     1  UNL1        0.1951
     14 O         137.6752  139.7970  162.5746 O.3     1  UNL1       -0.3493
     15 C         139.5679  141.4684  163.1861 C.3     1  UNL1        0.0347
     16 C         138.4730  141.0278  162.2604 C.3     1  UNL1        0.1446
     17 C         138.1758  141.8180  161.0205 C.3     1  UNL1        0.1666
     18 O         137.5995  143.1984  161.1311 O.3     1  UNL1       -0.3795
     19 H         136.7075  143.1471  161.5086 H       1  UNL1        0.2105
     20 O         140.1072  137.3192  162.7583 O.3     1  UNL1       -0.4517
     21 C         140.8624  138.0641  163.8189 C.ar    1  UNL1        0.2312
     22 N         142.3369  138.2943  163.6681 N.ar    1  UNL1       -0.1892
     23 C         143.0921  139.0391  164.7287 C.ar    1  UNL1        0.2029
     24 N         142.3727  139.5537  165.9402 N.ar    1  UNL1       -0.2045
     25 C         140.8982  139.3235  166.0910 C.ar    1  UNL1        0.1732
     26 C         140.1431  138.5787  165.0304 C.ar    1  UNL1        0.1099
     27 C         138.7050  138.5047  165.4507 C.ar    1  UNL1        0.1283
     28 N         138.5714  139.2038  166.7710 N.ar    1  UNL1       -0.1606
     29 N         139.9269  139.7099  167.1668 N.ar    1  UNL1       -0.1936
     30 C         140.2537  140.4690  168.4186 C.ar    1  UNL1        0.1759
     31 N         140.3535  139.7466  169.7293 N.ar    1  UNL1       -0.2242
     32 C         140.6803  140.5057  170.9811 C.ar    1  UNL1        0.1006
     33 C         140.9073  141.9873  170.9221 C.ar    1  UNL1        0.0217
     34 C         140.8075  142.7096  169.6114 C.ar    1  UNL1        0.0161
     35 C         140.4807  141.9505  168.3596 C.ar    1  UNL1        0.0935
     36 CL        140.3808  142.6730  167.0488 Cl      1  UNL1       -0.0790
@<TRIPOS>BOND
     1    16    15    1
     2    16    17    1
     3    17    18    1
     4    16    14    1
     5    14    13    1
     6     1    13    1
     7     1    20    1
     8    20    21    1
     9    21    22   ar
    10    22    23   ar
    11    23    24   ar
    12    24    25   ar
    13    25    26   ar
    14    26    27   ar
    15    27    28   ar
    16    28    29   ar
    17    29    30    1
    18    30    31   ar
    19    31    32   ar
    20    32    33   ar
    21    33    34   ar
    22    34    35   ar
    23    35    36    1
    24     1     2    1
    25     2     3    2
    26     2     4   am
    27     4     6    1
    28     6     7   ar
    29     7     8   ar
    30     8     9   ar
    31     9    10    1
    32     9    11   ar
    33    11    12   ar
    34    26    21   ar
    35    35    30   ar
    36    12     6   ar
    37    29    25   ar
    38    18    19    1
    39     4     5    1
@<TRIPOS>MOLECULE
*****
 36 39 0 0 0
SMALL
GASTEIGER

@<TRIPOS>ATOM
      1 C         142.8903  142.4090  166.3449 C.3     1  UNL1        0.2722
      2 C         141.7705  141.6712  165.6726 C.2     1  UNL1        0.2701
      3 O         140.3610  142.1674  165.8027 O.2     1  UNL1       -0.2707
      4 N         142.0603  140.4374  164.8704 N.am    1  UNL1       -0.2663
      5 H         142.9855  140.1118  164.7850 H       1  UNL1        0.1564
      6 C         140.9406  139.6997  164.1982 C.ar    1  UNL1        0.1344
      7 C         140.2288  138.5954  164.9220 C.ar    1  UNL1        0.0368
      8 C         139.1091  137.8577  164.2498 C.ar    1  UNL1        0.0341
      9 C         138.7010  138.2242  162.8537 C.ar    1  UNL1        0.1593
     10 F         137.5813  137.4865  162.1814 F       1  UNL1       -0.2025
     11 C         139.4128  139.3285  162.1298 C.ar    1  UNL1        0.1298
     12 N         140.5326  140.0662  162.8021 N.ar    1  UNL1       -0.2267
     13 C         143.1070  142.2595  167.8216 C.3     1  UNL1        0.1951
     14 O         141.9830  142.5345  168.7761 O.3     1  UNL1       -0.3493
     15 C         140.8745  140.1880  168.9005 C.3     1  UNL1        0.0347
     16 C         141.3960  141.4163  169.5856 C.3     1  UNL1        0.1446
     17 C         141.3305  141.5265  171.0800 C.3     1  UNL1        0.1666
     18 O         142.2661  140.7222  171.9330 O.3     1  UNL1       -0.3795
     19 H         142.0664  139.7785  171.8309 H       1  UNL1        0.2105
     20 O         143.7935  143.2961  165.5403 O.3     1  UNL1       -0.4517
     21 C         143.8075  143.1928  164.0439 C.ar    1  UNL1        0.2312
     22 N         144.8676  142.3831  163.3579 N.ar    1  UNL1       -0.1892
     23 C         144.8815  142.2798  161.8615 C.ar    1  UNL1        0.2029
     24 N         143.8355  142.9863  161.0512 N.ar    1  UNL1       -0.2045
     25 C         142.7755  143.7960  161.7372 C.ar    1  UNL1        0.1732
     26 C         142.7615  143.8993  163.2335 C.ar    1  UNL1        0.1099
     27 C         141.6007  144.7637  163.6277 C.ar    1  UNL1        0.1283
     28 N         140.8973  145.1947  162.3750 N.ar    1  UNL1       -0.1606
     29 N         141.6233  144.5967  161.2065 N.ar    1  UNL1       -0.1936
     30 C         141.2609  144.7689  159.7612 C.ar    1  UNL1        0.1759
     31 N         142.0328  145.7272  158.9035 N.ar    1  UNL1       -0.2242
     32 C         141.6704  145.8995  157.4582 C.ar    1  UNL1        0.1006
     33 C         140.5360  145.1135  156.8705 C.ar    1  UNL1        0.0217
     34 C         139.7641  144.1552  157.7283 C.ar    1  UNL1        0.0161
     35 C         140.1265  143.9829  159.1736 C.ar    1  UNL1        0.0935
     36 CL        139.3545  143.0246  160.0313 Cl      1  UNL1       -0.0790
@<TRIPOS>BOND
     1    16    15    1
     2    16    17    1
     3    17    18    1
     4    16    14    1
     5    14    13    1
     6     1    13    1
     7     1    20    1
     8    20    21    1
     9    21    22   ar
    10    22    23   ar
    11    23    24   ar
    12    24    25   ar
    13    25    26   ar
    14    26    27   ar
    15    27    28   ar
    16    28    29   ar
    17    29    30    1
    18    30    31   ar
    19    31    32   ar
    20    32    33   ar
    21    33    34   ar
    22    34    35   ar
    23    35    36    1
    24     1     2    1
    25     2     3    2
    26     2     4   am
    27     4     6    1
    28     6     7   ar
    29     7     8   ar
    30     8     9   ar
    31     9    10    1
    32     9    11   ar
    33    11    12   ar
    34    26    21   ar
    35    35    30   ar
    36    12     6   ar
    37    29    25   ar
    38    18    19    1
    39     4     5    1
@<TRIPOS>MOLECULE
*****
 36 39 0 0 0
SMALL
GASTEIGER

@<TRIPOS>ATOM
      1 C         142.1645  139.4989  166.9598 C.3     1  UNL1        0.2722
      2 C         141.0794  140.3463  166.3644 C.2     1  UNL1        0.2701
      3 O         139.6410  140.0388  166.6585 O.2     1  UNL1       -0.2707
      4 N         141.4327  141.5013  165.4749 N.am    1  UNL1       -0.2663
      5 H         142.3768  141.7031  165.2819 H       1  UNL1        0.1564
      6 C         140.3477  142.3487  164.8795 C.ar    1  UNL1        0.1344
      7 C         139.9768  143.6525  165.5217 C.ar    1  UNL1        0.0368
      8 C         138.8918  144.5000  164.9263 C.ar    1  UNL1        0.0341
      9 C         138.1776  144.0436  163.6886 C.ar    1  UNL1        0.1593
     10 F         137.0926  144.8910  163.0932 F       1  UNL1       -0.2025
     11 C         138.5486  142.7398  163.0464 C.ar    1  UNL1        0.1298
     12 N         139.6337  141.8923  163.6418 N.ar    1  UNL1       -0.2267
     13 C         142.5648  139.6906  168.3926 C.3     1  UNL1        0.1951
     14 O         142.7028  141.0747  168.9541 O.3     1  UNL1       -0.3493
     15 C         140.7927  142.8314  169.0782 C.3     1  UNL1        0.0347
     16 C         141.5595  141.7003  169.6967 C.3     1  UNL1        0.1446
     17 C         141.1830  141.1947  171.0578 C.3     1  UNL1        0.1666
     18 O         140.5406  142.1185  172.0497 O.3     1  UNL1       -0.3795
     19 H         141.1714  142.8107  172.3024 H       1  UNL1        0.2105
     20 O         142.8493  138.4598  166.1223 O.3     1  UNL1       -0.4517
     21 C         142.3279  138.1368  164.7534 C.ar    1  UNL1        0.2312
     22 N         141.1161  137.2665  164.5984 N.ar    1  UNL1       -0.1892
     23 C         140.5948  136.9436  163.2295 C.ar    1  UNL1        0.2029
     24 N         141.2853  137.4910  162.0156 N.ar    1  UNL1       -0.2045
     25 C         142.4970  138.3614  162.1706 C.ar    1  UNL1        0.1732
     26 C         143.0183  138.6843  163.5395 C.ar    1  UNL1        0.1099
     27 C         144.2240  139.5626  163.3811 C.ar    1  UNL1        0.1283
     28 N         144.4477  139.7825  161.9143 N.ar    1  UNL1       -0.1606
     29 N         143.3804  139.0401  161.1662 N.ar    1  UNL1       -0.1936
     30 C         143.2240  138.9860  159.6754 C.ar    1  UNL1        0.1759
     31 N         142.9991  137.6697  158.9921 N.ar    1  UNL1       -0.2242
     32 C         142.8427  137.6155  157.5013 C.ar    1  UNL1        0.1006
     33 C         142.9111  138.8777  156.6936 C.ar    1  UNL1        0.0217
     34 C         143.1359  140.1939  157.3769 C.ar    1  UNL1        0.0161
     35 C         143.2924  140.2481  158.8677 C.ar    1  UNL1        0.0935
     36 CL        143.5172  141.5644  159.5509 Cl      1  UNL1       -0.0790
@<TRIPOS>BOND
     1    16    15    1
     2    16    17    1
     3    17    18    1
     4    16    14    1
     5    14    13    1
     6     1    13    1
     7     1    20    1
     8    20    21    1
     9    21    22   ar
    10    22    23   ar
    11    23    24   ar
    12    24    25   ar
    13    25    26   ar
    14    26    27   ar
    15    27    28   ar
    16    28    29   ar
    17    29    30    1
    18    30    31   ar
    19    31    32   ar
    20    32    33   ar
    21    33    34   ar
    22    34    35   ar
    23    35    36    1
    24     1     2    1
    25     2     3    2
    26     2     4   am
    27     4     6    1
    28     6     7   ar
    29     7     8   ar
    30     8     9   ar
    31     9    10    1
    32     9    11   ar
    33    11    12   ar
    34    26    21   ar
    35    35    30   ar
    36    12     6   ar
    37    29    25   ar
    38    18    19    1
    39     4     5    1
@<TRIPOS>MOLECULE
*****
 36 39 0 0 0
SMALL
GASTEIGER

@<TRIPOS>ATOM
      1 C         141.0273  144.2807  160.0708 C.3     1  UNL1        0.2722
      2 C         141.1014  145.0771  158.8018 C.2     1  UNL1        0.2701
      3 O         142.2651  145.9914  158.5569 O.2     1  UNL1       -0.2707
      4 N         140.0117  144.9593  157.7777 N.am    1  UNL1       -0.2663
      5 H         139.2479  144.3593  157.9385 H       1  UNL1        0.1564
      6 C         140.0857  145.7557  156.5088 C.ar    1  UNL1        0.1344
      7 C         139.2965  147.0240  156.3722 C.ar    1  UNL1        0.0368
      8 C         139.3705  147.8204  155.1032 C.ar    1  UNL1        0.0341
      9 C         140.2338  147.3485  153.9708 C.ar    1  UNL1        0.1593
     10 F         140.3078  148.1449  152.7019 F       1  UNL1       -0.2025
     11 C         141.0229  146.0802  154.1075 C.ar    1  UNL1        0.1298
     12 N         140.9489  145.2838  155.3765 N.ar    1  UNL1       -0.2267
     13 C         140.9307  142.7850  160.0130 C.3     1  UNL1        0.1951
     14 O         139.5861  142.1201  160.0010 O.3     1  UNL1       -0.3493
     15 C         140.2463  140.7297  162.0941 C.3     1  UNL1        0.0347
     16 C         139.2191  141.1508  161.0854 C.3     1  UNL1        0.1446
     17 C         137.8249  140.6027  161.1610 C.3     1  UNL1        0.1666
     18 O         136.9318  140.9800  162.3055 O.3     1  UNL1       -0.3795
     19 H         137.2931  140.6190  163.1301 H       1  UNL1        0.2105
     20 O         141.0499  144.9801  161.3976 O.3     1  UNL1       -0.4517
     21 C         140.1899  144.4835  162.5219 C.ar    1  UNL1        0.2312
     22 N         138.6984  144.6210  162.4425 N.ar    1  UNL1       -0.1892
     23 C         137.8385  144.1244  163.5667 C.ar    1  UNL1        0.2029
     24 N         138.4702  143.4903  164.7704 N.ar    1  UNL1       -0.2045
     25 C         139.9618  143.3527  164.8498 C.ar    1  UNL1        0.1732
     26 C         140.8216  143.8493  163.7256 C.ar    1  UNL1        0.1099
     27 C         142.2533  143.5790  164.0826 C.ar    1  UNL1        0.1283
     28 N         142.2782  142.9154  165.4276 N.ar    1  UNL1       -0.1606
     29 N         140.8619  142.7755  165.9017 N.ar    1  UNL1       -0.1936
     30 C         140.4229  142.1656  167.1999 C.ar    1  UNL1        0.1759
     31 N         140.4709  142.9738  168.4625 N.ar    1  UNL1       -0.2242
     32 C         140.0319  142.3639  169.7607 C.ar    1  UNL1        0.1006
     33 C         139.5449  140.9456  169.7962 C.ar    1  UNL1        0.0217
     34 C         139.4969  140.1373  168.5335 C.ar    1  UNL1        0.0161
     35 C         139.9359  140.7473  167.2354 C.ar    1  UNL1        0.0935
     36 CL        139.8879  139.9389  165.9728 Cl      1  UNL1       -0.0790
@<TRIPOS>BOND
     1    16    15    1
     2    16    17    1
     3    17    18    1
     4    16    14    1
     5    14    13    1
     6     1    13    1
     7     1    20    1
     8    20    21    1
     9    21    22   ar
    10    22    23   ar
    11    23    24   ar
    12    24    25   ar
    13    25    26   ar
    14    26    27   ar
    15    27    28   ar
    16    28    29   ar
    17    29    30    1
    18    30    31   ar
    19    31    32   ar
    20    32    33   ar
    21    33    34   ar
    22    34    35   ar
    23    35    36    1
    24     1     2    1
    25     2     3    2
    26     2     4   am
    27     4     6    1
    28     6     7   ar
    29     7     8   ar
    30     8     9   ar
    31     9    10    1
    32     9    11   ar
    33    11    12   ar
    34    26    21   ar
    35    35    30   ar
    36    12     6   ar
    37    29    25   ar
    38    18    19    1
    39     4     5    1
@<TRIPOS>MOLECULE
*****
 36 39 0 0 0
SMALL
GASTEIGER

@<TRIPOS>ATOM
      1 C         142.1073  143.5345  160.0289 C.3     1  UNL1        0.2722
      2 C         143.0492  143.2938  158.8865 C.2     1  UNL1        0.2701
      3 O         142.8299  143.9876  157.5748 O.2     1  UNL1       -0.2707
      4 N         144.2103  142.3594  159.0559 N.am    1  UNL1       -0.2663
      5 H         144.3541  141.9040  159.9168 H       1  UNL1        0.1564
      6 C         145.1521  142.1187  157.9136 C.ar    1  UNL1        0.1344
      7 C         144.8224  141.0891  156.8738 C.ar    1  UNL1        0.0368
      8 C         145.7643  140.8484  155.7315 C.ar    1  UNL1        0.0341
      9 C         147.0359  141.6373  155.6289 C.ar    1  UNL1        0.1593
     10 F         147.9778  141.3967  154.4866 F       1  UNL1       -0.2025
     11 C         147.3657  142.6670  156.6687 C.ar    1  UNL1        0.1298
     12 N         146.4237  142.9076  157.8110 N.ar    1  UNL1       -0.2267
     13 C         140.6883  143.0555  159.9447 C.3     1  UNL1        0.1951
     14 O         139.7394  143.3191  161.0760 O.3     1  UNL1       -0.3493
     15 C         139.2442  140.7773  161.2860 C.3     1  UNL1        0.0347
     16 C         138.9243  142.1973  161.6481 C.3     1  UNL1        0.1446
     17 C         137.7892  142.4955  162.5823 C.3     1  UNL1        0.1666
     18 O         136.7804  141.4321  162.9003 O.3     1  UNL1       -0.3795
     19 H         136.2784  141.2129  162.0997 H       1  UNL1        0.2105
     20 O         142.5844  144.2541  161.2554 O.3     1  UNL1       -0.4517
     21 C         143.2523  143.4908  162.3607 C.ar    1  UNL1        0.2312
     22 N         144.6233  142.9184  162.1548 N.ar    1  UNL1       -0.1892
     23 C         145.2911  142.1552  163.2600 C.ar    1  UNL1        0.2029
     24 N         144.5878  141.9644  164.5711 N.ar    1  UNL1       -0.2045
     25 C         143.2167  142.5368  164.7770 C.ar    1  UNL1        0.1732
     26 C         142.5490  143.3001  163.6718 C.ar    1  UNL1        0.1099
     27 C         141.2035  143.7456  164.1632 C.ar    1  UNL1        0.1283
     28 N         141.0398  143.2576  165.5721 N.ar    1  UNL1       -0.1606
     29 N         142.2841  142.5106  165.9515 N.ar    1  UNL1       -0.1936
     30 C         142.5491  141.8528  167.2732 C.ar    1  UNL1        0.1759
     31 N         143.2561  142.6088  168.3588 N.ar    1  UNL1       -0.2242
     32 C         143.5211  141.9510  169.6806 C.ar    1  UNL1        0.1006
     33 C         143.0791  140.5372  169.9168 C.ar    1  UNL1        0.0217
     34 C         142.3721  139.7812  168.8312 C.ar    1  UNL1        0.0161
     35 C         142.1071  140.4390  167.5094 C.ar    1  UNL1        0.0935
     36 CL        141.4000  139.6830  166.4238 Cl      1  UNL1       -0.0790
@<TRIPOS>BOND
     1    16    15    1
     2    16    17    1
     3    17    18    1
     4    16    14    1
     5    14    13    1
     6     1    13    1
     7     1    20    1
     8    20    21    1
     9    21    22   ar
    10    22    23   ar
    11    23    24   ar
    12    24    25   ar
    13    25    26   ar
    14    26    27   ar
    15    27    28   ar
    16    28    29   ar
    17    29    30    1
    18    30    31   ar
    19    31    32   ar
    20    32    33   ar
    21    33    34   ar
    22    34    35   ar
    23    35    36    1
    24     1     2    1
    25     2     3    2
    26     2     4   am
    27     4     6    1
    28     6     7   ar
    29     7     8   ar
    30     8     9   ar
    31     9    10    1
    32     9    11   ar
    33    11    12   ar
    34    26    21   ar
    35    35    30   ar
    36    12     6   ar
    37    29    25   ar
    38    18    19    1
    39     4     5    1
@<TRIPOS>MOLECULE
*****
 36 39 0 0 0
SMALL
GASTEIGER

@<TRIPOS>ATOM
      1 C         141.6195  139.1082  158.6224 C.3     1  UNL1        0.2722
      2 C         141.6705  137.8662  157.7827 C.2     1  UNL1        0.2701
      3 O         140.4236  137.3542  157.1246 O.2     1  UNL1       -0.2707
      4 N         142.9683  137.1364  157.6011 N.am    1  UNL1       -0.2663
      5 H         143.7866  137.4725  158.0330 H       1  UNL1        0.1564
      6 C         143.0192  135.8945  156.7614 C.ar    1  UNL1        0.1344
      7 C         142.8466  135.9870  155.2742 C.ar    1  UNL1        0.0368
      8 C         142.8976  134.7452  154.4346 C.ar    1  UNL1        0.0341
      9 C         143.1212  133.4106  155.0821 C.ar    1  UNL1        0.1593
     10 F         143.1721  132.1688  154.2424 F       1  UNL1       -0.2025
     11 C         143.2938  133.3181  156.5692 C.ar    1  UNL1        0.1298
     12 N         143.2428  134.5601  157.4089 N.ar    1  UNL1       -0.2267
     13 C         142.8361  139.9760  158.7525 C.3     1  UNL1        0.1951
     14 O         144.0662  139.4466  159.4282 O.3     1  UNL1       -0.3493
     15 C         144.0220  137.7717  161.4139 C.3     1  UNL1        0.0347
     16 C         144.0559  139.1823  160.9047 C.3     1  UNL1        0.1446
     17 C         144.0796  140.3285  161.8720 C.3     1  UNL1        0.1666
     18 O         145.3478  140.6740  162.5945 O.3     1  UNL1       -0.3795
     19 H         145.5854  139.9500  163.1948 H       1  UNL1        0.2105
     20 O         140.3520  139.4823  159.3319 O.3     1  UNL1       -0.4517
     21 C         140.4128  140.2088  160.6429 C.ar    1  UNL1        0.2312
     22 N         140.4224  141.7085  160.6696 N.ar    1  UNL1       -0.1892
     23 C         140.4832  142.4349  161.9806 C.ar    1  UNL1        0.2029
     24 N         140.5343  141.6615  163.2648 N.ar    1  UNL1       -0.2045
     25 C         140.5248  140.1618  163.2382 C.ar    1  UNL1        0.1732
     26 C         140.4640  139.4355  161.9272 C.ar    1  UNL1        0.1099
     27 C         140.4680  137.9628  162.2126 C.ar    1  UNL1        0.1283
     28 N         140.5313  137.7791  163.6999 N.ar    1  UNL1       -0.1606
     29 N         140.5664  139.1382  164.3338 N.ar    1  UNL1       -0.1936
     30 C         140.6316  139.4235  165.8049 C.ar    1  UNL1        0.1759
     31 N         141.9608  139.5014  166.4956 N.ar    1  UNL1       -0.2242
     32 C         142.0260  139.7867  167.9668 C.ar    1  UNL1        0.1006
     33 C         140.7620  139.9942  168.7473 C.ar    1  UNL1        0.0217
     34 C         139.4328  139.9163  168.0566 C.ar    1  UNL1        0.0161
     35 C         139.3676  139.6310  166.5854 C.ar    1  UNL1        0.0935
     36 CL        138.0383  139.5531  165.8948 Cl      1  UNL1       -0.0790
@<TRIPOS>BOND
     1    16    15    1
     2    16    17    1
     3    17    18    1
     4    16    14    1
     5    14    13    1
     6     1    13    1
     7     1    20    1
     8    20    21    1
     9    21    22   ar
    10    22    23   ar
    11    23    24   ar
    12    24    25   ar
    13    25    26   ar
    14    26    27   ar
    15    27    28   ar
    16    28    29   ar
    17    29    30    1
    18    30    31   ar
    19    31    32   ar
    20    32    33   ar
    21    33    34   ar
    22    34    35   ar
    23    35    36    1
    24     1     2    1
    25     2     3    2
    26     2     4   am
    27     4     6    1
    28     6     7   ar
    29     7     8   ar
    30     8     9   ar
    31     9    10    1
    32     9    11   ar
    33    11    12   ar
    34    26    21   ar
    35    35    30   ar
    36    12     6   ar
    37    29    25   ar
    38    18    19    1
    39     4     5    1
