@<TRIPOS>MOLECULE
*****
 42 47 0 0 0
SMALL
GASTEIGER

@<TRIPOS>ATOM
      1 N         140.1159  138.7355  160.8109 N.3     1  UNL1       -0.2688
      2 C         141.5198  138.7352  161.3394 C.3     1  UNL1        0.0741
      3 C         142.6034  139.4520  160.5899 C.3     1  UNL1        0.0372
      4 C         142.2832  140.1693  159.3120 C.3     1  UNL1        0.0799
      5 C         140.8794  140.1696  158.7835 C.3     1  UNL1        0.0372
      6 C         139.7957  139.4527  159.5330 C.3     1  UNL1        0.0741
      7 N         143.3669  140.8861  158.5625 N.am    1  UNL1       -0.2618
      8 C         143.9620  140.4619  157.2526 C.2     1  UNL1        0.3074
      9 O         143.5779  139.2463  156.4621 O.2     1  UNL1       -0.2523
     10 N         145.0087  141.4667  156.8718 N.am    1  UNL1       -0.2635
     11 C         145.0604  142.5120  157.9464 C.3     1  UNL1        0.1192
     12 C         144.0458  142.1531  158.9913 C.3     1  UNL1        0.1191
     13 C         145.8549  141.4323  155.6338 C.3     1  UNL1        0.0819
     14 C         145.2505  141.0230  154.3234 C.3     1  UNL1        0.0520
     15 C         146.0968  140.9885  153.0854 C.3     1  UNL1        0.1439
     16 O         147.5474  141.3634  153.1578 O.3     1  UNL1       -0.3537
     17 C         148.1517  141.7727  154.4683 C.3     1  UNL1        0.1439
     18 C         147.3054  141.8071  155.7063 C.3     1  UNL1        0.0520
     19 C         143.7601  142.9257  160.2449 C.ar    1  UNL1       -0.0026
     20 C         142.4689  143.6762  160.3856 C.ar    1  UNL1       -0.0026
     21 C         142.1833  144.4488  161.6392 C.ar    1  UNL1       -0.0003
     22 C         143.1888  144.4709  162.7521 C.ar    1  UNL1       -0.0000
     23 C         144.4799  143.7205  162.6114 C.ar    1  UNL1       -0.0003
     24 C         144.7655  142.9479  161.3579 C.ar    1  UNL1       -0.0026
     25 C         139.0322  138.0186  161.5604 C.3     1  UNL1        0.1003
     26 C         137.7320  140.5172  162.5932 C.3     1  UNL1        0.0519
     27 C         138.2272  139.4772  163.5540 C.ar    1  UNL1        0.0598
     28 N         138.0723  139.6865  165.0312 N.ar    1  UNL1       -0.2160
     29 C         138.5675  138.6466  165.9921 C.ar    1  UNL1        0.2293
     30 C         139.2176  137.3973  165.4757 C.ar    1  UNL1        0.0578
     31 C         139.3725  137.1880  163.9985 C.ar    1  UNL1        0.0031
     32 C         138.8773  138.2280  163.0377 C.ar    1  UNL1        0.0077
     33 O         138.4126  138.8559  167.4693 O.3     1  UNL1       -0.4361
     34 C         139.0523  140.0409  168.1300 C.ar    1  UNL1        0.1472
     35 C         138.7833  140.3285  169.5775 C.ar    1  UNL1        0.0376
     36 C         139.4230  141.5135  170.2382 C.ar    1  UNL1        0.0043
     37 C         140.3317  142.4109  169.4514 C.ar    1  UNL1        0.0142
     38 C         140.6006  142.1234  168.0040 C.ar    1  UNL1        0.0043
     39 C         139.9609  140.9384  167.3433 C.ar    1  UNL1        0.0376
     40 C         140.9714  143.5959  170.1121 C.2     1  UNL1        0.0729
     41 O         140.1979  144.8703  170.2783 O.co2   1  UNL1       -0.5446
     42 O         142.3848  143.5066  170.6066 O.co2   1  UNL1       -0.5446
@<TRIPOS>UNITY_ATOM_ATTR
41 1
charge -1
@<TRIPOS>BOND
     1    26    27    1
     2    27    28   ar
     3    28    29   ar
     4    29    33    1
     5    33    34    1
     6    34    35   ar
     7    35    36   ar
     8    36    37   ar
     9    37    40    1
    10    40    41   ar
    11    40    42   ar
    12    37    38   ar
    13    38    39   ar
    14    29    30   ar
    15    30    31   ar
    16    31    32   ar
    17    32    25    1
    18    25     1    1
    19     1     2    1
    20     2     3    1
    21     3     4    1
    22     4     7    1
    23     7     8   am
    24     8     9    2
    25     8    10   am
    26    10    13    1
    27    13    14    1
    28    14    15    1
    29    15    16    1
    30    16    17    1
    31    17    18    1
    32    10    11    1
    33    11    12    1
    34    12    19    1
    35    19    20   ar
    36    20    21   ar
    37    21    22   ar
    38    22    23   ar
    39    23    24   ar
    40     4     5    1
    41     5     6    1
    42    32    27   ar
    43     6     1    1
    44    39    34   ar
    45    12     7    1
    46    24    19   ar
    47    18    13    1
@<TRIPOS>MOLECULE
*****
 42 47 0 0 0
SMALL
GASTEIGER

@<TRIPOS>ATOM
      1 N         143.6191  141.8601  161.1155 N.3     1  UNL1       -0.2688
      2 C         144.0376  140.7971  162.0876 C.3     1  UNL1        0.0741
      3 C         143.2604  140.5908  163.3539 C.3     1  UNL1        0.0372
      4 C         142.0648  141.4476  163.6481 C.3     1  UNL1        0.0799
      5 C         141.6463  142.5106  162.6760 C.3     1  UNL1        0.0372
      6 C         142.4235  142.7168  161.4097 C.3     1  UNL1        0.0741
      7 N         141.2876  141.2414  164.9143 N.am    1  UNL1       -0.2618
      8 C         141.6736  141.7370  166.2764 C.2     1  UNL1        0.3074
      9 O         142.9046  142.5259  166.6114 O.2     1  UNL1       -0.2523
     10 N         140.6125  141.3052  167.2448 N.am    1  UNL1       -0.2635
     11 C         139.5707  140.5427  166.4812 C.3     1  UNL1        0.1192
     12 C         139.9879  140.5032  165.0409 C.3     1  UNL1        0.1191
     13 C         140.5962  141.5866  168.7181 C.3     1  UNL1        0.0819
     14 C         140.1912  142.9415  169.2183 C.3     1  UNL1        0.0520
     15 C         140.1749  143.2228  170.6916 C.3     1  UNL1        0.1439
     16 O         140.5635  142.1493  171.6646 O.3     1  UNL1       -0.3537
     17 C         140.9684  140.7945  171.1642 C.3     1  UNL1        0.1439
     18 C         140.9848  140.5131  169.6909 C.3     1  UNL1        0.0520
     19 C         139.2372  139.8418  163.9233 C.ar    1  UNL1       -0.0026
     20 C         138.4537  140.6730  162.9510 C.ar    1  UNL1       -0.0026
     21 C         137.7030  140.0115  161.8334 C.ar    1  UNL1       -0.0003
     22 C         137.7357  138.5189  161.6882 C.ar    1  UNL1       -0.0000
     23 C         138.5192  137.6878  162.6605 C.ar    1  UNL1       -0.0003
     24 C         139.2698  138.3492  163.7780 C.ar    1  UNL1       -0.0026
     25 C         144.3963  142.0664  159.8492 C.3     1  UNL1        0.1003
     26 C         145.9837  142.4472  157.3322 C.3     1  UNL1        0.0519
     27 C         144.9237  141.3878  157.3974 C.ar    1  UNL1        0.0598
     28 N         144.6575  140.5189  156.2041 N.ar    1  UNL1       -0.2160
     29 C         143.5975  139.4595  156.2693 C.ar    1  UNL1        0.2293
     30 C         142.8038  139.2691  157.5277 C.ar    1  UNL1        0.0578
     31 C         143.0701  140.1380  158.7210 C.ar    1  UNL1        0.0031
     32 C         144.1300  141.1974  158.6559 C.ar    1  UNL1        0.0077
     33 O         143.3313  138.5905  155.0759 O.3     1  UNL1       -0.4361
     34 C         142.9858  137.1431  155.2643 C.ar    1  UNL1        0.1472
     35 C         141.5745  136.6764  155.0622 C.ar    1  UNL1        0.0376
     36 C         141.2290  135.2290  155.2506 C.ar    1  UNL1        0.0043
     37 C         142.2947  134.2482  155.6410 C.ar    1  UNL1        0.0142
     38 C         143.7058  134.7148  155.8431 C.ar    1  UNL1        0.0043
     39 C         144.0513  136.1623  155.6548 C.ar    1  UNL1        0.0376
     40 C         141.9491  132.8007  155.8294 C.2     1  UNL1        0.0729
     41 O         142.5662  132.0225  156.9535 O.co2   1  UNL1       -0.5446
     42 O         140.9865  132.1315  154.8937 O.co2   1  UNL1       -0.5446
@<TRIPOS>UNITY_ATOM_ATTR
41 1
charge -1
@<TRIPOS>BOND
     1    26    27    1
     2    27    28   ar
     3    28    29   ar
     4    29    33    1
     5    33    34    1
     6    34    35   ar
     7    35    36   ar
     8    36    37   ar
     9    37    40    1
    10    40    41   ar
    11    40    42   ar
    12    37    38   ar
    13    38    39   ar
    14    29    30   ar
    15    30    31   ar
    16    31    32   ar
    17    32    25    1
    18    25     1    1
    19     1     2    1
    20     2     3    1
    21     3     4    1
    22     4     7    1
    23     7     8   am
    24     8     9    2
    25     8    10   am
    26    10    13    1
    27    13    14    1
    28    14    15    1
    29    15    16    1
    30    16    17    1
    31    17    18    1
    32    10    11    1
    33    11    12    1
    34    12    19    1
    35    19    20   ar
    36    20    21   ar
    37    21    22   ar
    38    22    23   ar
    39    23    24   ar
    40     4     5    1
    41     5     6    1
    42    32    27   ar
    43     6     1    1
    44    39    34   ar
    45    12     7    1
    46    24    19   ar
    47    18    13    1
@<TRIPOS>MOLECULE
*****
 42 47 0 0 0
SMALL
GASTEIGER

@<TRIPOS>ATOM
      1 N         143.3334  140.0856  160.7096 N.3     1  UNL1       -0.2688
      2 C         143.7750  141.4831  161.0292 C.3     1  UNL1        0.0741
      3 C         143.1584  142.6471  160.3117 C.3     1  UNL1        0.0372
      4 C         142.1001  142.4136  159.2746 C.3     1  UNL1        0.0799
      5 C         141.6585  141.0162  158.9550 C.3     1  UNL1        0.0372
      6 C         142.2752  139.8522  159.6725 C.3     1  UNL1        0.0741
      7 N         141.4834  143.5776  158.5571 N.am    1  UNL1       -0.2618
      8 C         141.7842  144.0068  157.1516 C.2     1  UNL1        0.3074
      9 O         142.7546  143.3474  156.2169 O.2     1  UNL1       -0.2523
     10 N         140.9444  145.2113  156.8450 N.am    1  UNL1       -0.2635
     11 C         140.1245  145.5264  158.0609 C.3     1  UNL1        0.1192
     12 C         140.4576  144.5167  159.1190 C.3     1  UNL1        0.1191
     13 C         140.9275  145.9677  155.5498 C.3     1  UNL1        0.0819
     14 C         141.7264  145.4717  154.3811 C.3     1  UNL1        0.0520
     15 C         141.7094  146.2281  153.0860 C.3     1  UNL1        0.1439
     16 O         140.8936  147.4805  152.9594 O.3     1  UNL1       -0.3537
     17 C         140.0947  147.9764  154.1281 C.3     1  UNL1        0.1439
     18 C         140.1117  147.2200  155.4233 C.3     1  UNL1        0.0520
     19 C         139.8684  144.4568  160.4971 C.ar    1  UNL1       -0.0026
     20 C         140.2112  145.5127  161.5060 C.ar    1  UNL1       -0.0026
     21 C         139.6219  145.4527  162.8841 C.ar    1  UNL1       -0.0003
     22 C         138.6900  144.3369  163.2534 C.ar    1  UNL1       -0.0000
     23 C         138.3473  143.2811  162.2446 C.ar    1  UNL1       -0.0003
     24 C         138.9364  143.3410  160.8666 C.ar    1  UNL1       -0.0026
     25 C         143.9501  138.9216  161.4271 C.3     1  UNL1        0.1003
     26 C         141.5097  137.6553  162.6275 C.3     1  UNL1        0.0519
     27 C         142.6011  138.1721  163.5172 C.ar    1  UNL1        0.0598
     28 N         142.4723  138.0559  165.0071 N.ar    1  UNL1       -0.2160
     29 C         143.5637  138.5727  165.8969 C.ar    1  UNL1        0.2293
     30 C         144.7839  139.2059  165.2967 C.ar    1  UNL1        0.0578
     31 C         144.9127  139.3222  163.8068 C.ar    1  UNL1        0.0031
     32 C         143.8213  138.8053  162.9171 C.ar    1  UNL1        0.0077
     33 O         143.4349  138.4564  167.3869 O.3     1  UNL1       -0.4361
     34 C         142.6916  139.5055  168.1595 C.ar    1  UNL1        0.1472
     35 C         142.2071  139.2117  169.5484 C.ar    1  UNL1        0.0376
     36 C         141.4639  140.2608  170.3211 C.ar    1  UNL1        0.0043
     37 C         141.2051  141.6037  169.7049 C.ar    1  UNL1        0.0142
     38 C         141.6896  141.8975  168.3160 C.ar    1  UNL1        0.0043
     39 C         142.4329  140.8484  167.5434 C.ar    1  UNL1        0.0376
     40 C         140.4619  142.6528  170.4775 C.2     1  UNL1        0.0729
     41 O         139.9746  143.8905  169.7843 O.co2   1  UNL1       -0.5446
     42 O         140.2060  142.4641  171.9435 O.co2   1  UNL1       -0.5446
@<TRIPOS>UNITY_ATOM_ATTR
41 1
charge -1
@<TRIPOS>BOND
     1    26    27    1
     2    27    28   ar
     3    28    29   ar
     4    29    33    1
     5    33    34    1
     6    34    35   ar
     7    35    36   ar
     8    36    37   ar
     9    37    40    1
    10    40    41   ar
    11    40    42   ar
    12    37    38   ar
    13    38    39   ar
    14    29    30   ar
    15    30    31   ar
    16    31    32   ar
    17    32    25    1
    18    25     1    1
    19     1     2    1
    20     2     3    1
    21     3     4    1
    22     4     7    1
    23     7     8   am
    24     8     9    2
    25     8    10   am
    26    10    13    1
    27    13    14    1
    28    14    15    1
    29    15    16    1
    30    16    17    1
    31    17    18    1
    32    10    11    1
    33    11    12    1
    34    12    19    1
    35    19    20   ar
    36    20    21   ar
    37    21    22   ar
    38    22    23   ar
    39    23    24   ar
    40     4     5    1
    41     5     6    1
    42    32    27   ar
    43     6     1    1
    44    39    34   ar
    45    12     7    1
    46    24    19   ar
    47    18    13    1
@<TRIPOS>MOLECULE
*****
 42 47 0 0 0
SMALL
GASTEIGER

@<TRIPOS>ATOM
      1 N         139.1974  139.3690  160.0490 N.3     1  UNL1       -0.2688
      2 C         140.3467  138.4051  160.0645 C.3     1  UNL1        0.0741
      3 C         141.4771  138.5702  159.0924 C.3     1  UNL1        0.0372
      4 C         141.4582  139.6990  158.1048 C.3     1  UNL1        0.0799
      5 C         140.3089  140.6628  158.0893 C.3     1  UNL1        0.0372
      6 C         139.1785  140.4978  159.0614 C.3     1  UNL1        0.0741
      7 N         142.5886  139.8640  157.1327 N.am    1  UNL1       -0.2618
      8 C         143.4439  141.0860  156.9743 C.2     1  UNL1        0.3074
      9 O         143.3191  142.3576  157.7601 O.2     1  UNL1       -0.2523
     10 N         144.4461  140.8133  155.8920 N.am    1  UNL1       -0.2635
     11 C         144.2101  139.4227  155.3815 C.3     1  UNL1        0.1192
     12 C         143.0621  138.8360  156.1483 C.3     1  UNL1        0.1191
     13 C         145.4993  141.7641  155.4056 C.3     1  UNL1        0.0819
     14 C         146.9298  141.5714  155.8137 C.3     1  UNL1        0.0520
     15 C         147.9830  142.5223  155.3273 C.3     1  UNL1        0.1439
     16 O         147.6057  143.6658  154.4329 O.3     1  UNL1       -0.3537
     17 C         146.1752  143.8585  154.0249 C.3     1  UNL1        0.1439
     18 C         145.1220  142.9076  154.5113 C.3     1  UNL1        0.0520
     19 C         142.4884  137.4625  155.9632 C.ar    1  UNL1       -0.0026
     20 C         141.1728  137.2872  155.2641 C.ar    1  UNL1       -0.0026
     21 C         140.5990  135.9136  155.0790 C.ar    1  UNL1       -0.0003
     22 C         141.3408  134.7155  155.5930 C.ar    1  UNL1       -0.0000
     23 C         142.6563  134.8908  156.2920 C.ar    1  UNL1       -0.0003
     24 C         143.2300  136.2642  156.4771 C.ar    1  UNL1       -0.0026
     25 C         138.0670  139.2040  161.0211 C.3     1  UNL1        0.1003
     26 C         137.3736  141.4855  162.8415 C.3     1  UNL1        0.0519
     27 C         138.0036  140.2445  163.4009 C.ar    1  UNL1        0.0598
     28 N         138.2868  140.1442  164.8705 N.ar    1  UNL1       -0.2160
     29 C         138.9168  138.9031  165.4299 C.ar    1  UNL1        0.2293
     30 C         139.2634  137.7623  164.5197 C.ar    1  UNL1        0.0578
     31 C         138.9802  137.8627  163.0501 C.ar    1  UNL1        0.0031
     32 C         138.3502  139.1037  162.4907 C.ar    1  UNL1        0.0077
     33 O         139.2000  138.8028  166.8995 O.3     1  UNL1       -0.4361
     34 C         139.6615  140.0115  167.6585 C.ar    1  UNL1        0.1472
     35 C         140.6180  140.9764  167.0227 C.ar    1  UNL1        0.0376
     36 C         141.0794  142.1851  167.7817 C.ar    1  UNL1        0.0043
     37 C         140.5843  142.4289  169.1766 C.ar    1  UNL1        0.0142
     38 C         139.6279  141.4641  169.8123 C.ar    1  UNL1        0.0043
     39 C         139.1664  140.2554  169.0533 C.ar    1  UNL1        0.0376
     40 C         141.0458  143.6376  169.9356 C.2     1  UNL1        0.0729
     41 O         142.4649  143.7266  170.4133 O.co2   1  UNL1       -0.5446
     42 O         140.0880  144.7573  170.2170 O.co2   1  UNL1       -0.5446
@<TRIPOS>UNITY_ATOM_ATTR
41 1
charge -1
@<TRIPOS>BOND
     1    26    27    1
     2    27    28   ar
     3    28    29   ar
     4    29    33    1
     5    33    34    1
     6    34    35   ar
     7    35    36   ar
     8    36    37   ar
     9    37    40    1
    10    40    41   ar
    11    40    42   ar
    12    37    38   ar
    13    38    39   ar
    14    29    30   ar
    15    30    31   ar
    16    31    32   ar
    17    32    25    1
    18    25     1    1
    19     1     2    1
    20     2     3    1
    21     3     4    1
    22     4     7    1
    23     7     8   am
    24     8     9    2
    25     8    10   am
    26    10    13    1
    27    13    14    1
    28    14    15    1
    29    15    16    1
    30    16    17    1
    31    17    18    1
    32    10    11    1
    33    11    12    1
    34    12    19    1
    35    19    20   ar
    36    20    21   ar
    37    21    22   ar
    38    22    23   ar
    39    23    24   ar
    40     4     5    1
    41     5     6    1
    42    32    27   ar
    43     6     1    1
    44    39    34   ar
    45    12     7    1
    46    24    19   ar
    47    18    13    1
@<TRIPOS>MOLECULE
*****
 42 47 0 0 0
SMALL
GASTEIGER

@<TRIPOS>ATOM
      1 N         142.6807  142.9275  159.8796 N.3     1  UNL1       -0.2688
      2 C         141.7055  143.8046  160.6076 C.3     1  UNL1        0.0741
      3 C         141.3208  143.4856  162.0219 C.3     1  UNL1        0.0372
      4 C         141.9113  142.2896  162.7082 C.3     1  UNL1        0.0799
      5 C         142.8863  141.4126  161.9802 C.3     1  UNL1        0.0372
      6 C         143.2710  141.7315  160.5659 C.3     1  UNL1        0.0741
      7 N         141.5266  141.9706  164.1225 N.am    1  UNL1       -0.2618
      8 C         142.0979  142.6046  165.3560 C.2     1  UNL1        0.3074
      9 O         143.1543  143.6689  165.3918 O.2     1  UNL1       -0.2523
     10 N         141.4275  141.9875  166.5475 N.am    1  UNL1       -0.2635
     11 C         140.4417  140.9721  166.0504 C.3     1  UNL1        0.1192
     12 C         140.5030  140.9617  164.5516 C.3     1  UNL1        0.1191
     13 C         141.6957  142.3264  167.9839 C.3     1  UNL1        0.0819
     14 C         143.0745  142.1564  168.5496 C.3     1  UNL1        0.0520
     15 C         143.3427  142.4952  169.9860 C.3     1  UNL1        0.1439
     16 O         142.2322  143.0040  170.8566 O.3     1  UNL1       -0.3537
     17 C         140.8534  143.1739  170.2908 C.3     1  UNL1        0.1439
     18 C         140.5852  142.8351  168.8544 C.3     1  UNL1        0.0520
     19 C         139.6843  140.0945  163.6418 C.ar    1  UNL1       -0.0026
     20 C         140.0264  138.6428  163.4811 C.ar    1  UNL1       -0.0026
     21 C         139.2077  137.7756  162.5713 C.ar    1  UNL1       -0.0003
     22 C         138.0470  138.3600  161.8222 C.ar    1  UNL1       -0.0000
     23 C         137.7049  139.8116  161.9829 C.ar    1  UNL1       -0.0003
     24 C         138.5235  140.6787  162.8926 C.ar    1  UNL1       -0.0026
     25 C         143.0654  143.2464  158.4652 C.3     1  UNL1        0.1003
     26 C         140.9311  141.7354  156.9949 C.3     1  UNL1        0.0519
     27 C         141.0393  143.2234  156.8390 C.ar    1  UNL1        0.0598
     28 N         140.0804  143.9558  155.9480 N.ar    1  UNL1       -0.2160
     29 C         140.1886  145.4437  155.7920 C.ar    1  UNL1        0.2293
     30 C         141.2557  146.1992  156.5272 C.ar    1  UNL1        0.0578
     31 C         142.2146  145.4668  157.4182 C.ar    1  UNL1        0.0031
     32 C         142.1064  143.9789  157.5741 C.ar    1  UNL1        0.0077
     33 O         139.2296  146.1761  154.9009 O.3     1  UNL1       -0.4361
     34 C         139.2406  147.6755  154.8590 C.ar    1  UNL1        0.1472
     35 C         139.9759  148.3898  153.7638 C.ar    1  UNL1        0.0376
     36 C         139.9869  149.8892  153.7219 C.ar    1  UNL1        0.0043
     37 C         139.2626  150.6743  154.7751 C.ar    1  UNL1        0.0142
     38 C         138.5275  149.9600  155.8702 C.ar    1  UNL1        0.0043
     39 C         138.5164  148.4606  155.9121 C.ar    1  UNL1        0.0376
     40 C         139.2737  152.1736  154.7331 C.2     1  UNL1        0.0729
     41 O         138.9311  152.9609  155.9631 O.co2   1  UNL1       -0.5446
     42 O         139.6273  152.8858  153.4611 O.co2   1  UNL1       -0.5446
@<TRIPOS>UNITY_ATOM_ATTR
41 1
charge -1
@<TRIPOS>BOND
     1    26    27    1
     2    27    28   ar
     3    28    29   ar
     4    29    33    1
     5    33    34    1
     6    34    35   ar
     7    35    36   ar
     8    36    37   ar
     9    37    40    1
    10    40    41   ar
    11    40    42   ar
    12    37    38   ar
    13    38    39   ar
    14    29    30   ar
    15    30    31   ar
    16    31    32   ar
    17    32    25    1
    18    25     1    1
    19     1     2    1
    20     2     3    1
    21     3     4    1
    22     4     7    1
    23     7     8   am
    24     8     9    2
    25     8    10   am
    26    10    13    1
    27    13    14    1
    28    14    15    1
    29    15    16    1
    30    16    17    1
    31    17    18    1
    32    10    11    1
    33    11    12    1
    34    12    19    1
    35    19    20   ar
    36    20    21   ar
    37    21    22   ar
    38    22    23   ar
    39    23    24   ar
    40     4     5    1
    41     5     6    1
    42    32    27   ar
    43     6     1    1
    44    39    34   ar
    45    12     7    1
    46    24    19   ar
    47    18    13    1
@<TRIPOS>MOLECULE
*****
 42 47 0 0 0
SMALL
GASTEIGER

@<TRIPOS>ATOM
      1 N         140.3067  140.8908  159.6453 N.3     1  UNL1       -0.2688
      2 C         138.9590  141.5420  159.7433 C.3     1  UNL1        0.0741
      3 C         138.5702  142.6120  158.7667 C.3     1  UNL1        0.0372
      4 C         139.5292  143.0309  157.6920 C.3     1  UNL1        0.0799
      5 C         140.8769  142.3797  157.5940 C.3     1  UNL1        0.0372
      6 C         141.2657  141.3096  158.5706 C.3     1  UNL1        0.0741
      7 N         139.1405  144.1009  156.7153 N.am    1  UNL1       -0.2618
      8 C         139.6053  145.5269  156.7385 C.2     1  UNL1        0.3074
      9 O         140.5405  146.1332  157.7424 O.2     1  UNL1       -0.2523
     10 N         138.9708  146.2402  155.5815 N.am    1  UNL1       -0.2635
     11 C         138.1137  145.2550  154.8432 C.3     1  UNL1        0.1192
     12 C         138.2187  143.9329  155.5440 C.3     1  UNL1        0.1191
     13 C         139.1600  147.6849  155.2253 C.3     1  UNL1        0.0819
     14 C         138.5423  148.7543  156.0767 C.3     1  UNL1        0.0520
     15 C         138.7316  150.1991  155.7206 C.3     1  UNL1        0.1439
     16 O         139.5385  150.5744  154.5130 O.3     1  UNL1       -0.3537
     17 C         140.1561  149.5050  153.6617 C.3     1  UNL1        0.1439
     18 C         139.9669  148.0602  154.0179 C.3     1  UNL1        0.0520
     19 C         137.5237  142.6653  155.1437 C.ar    1  UNL1       -0.0026
     20 C         136.1209  142.4013  155.6047 C.ar    1  UNL1       -0.0026
     21 C         135.4259  141.1337  155.2044 C.ar    1  UNL1       -0.0003
     22 C         136.1337  140.1301  154.3430 C.ar    1  UNL1       -0.0000
     23 C         137.5365  140.3942  153.8820 C.ar    1  UNL1       -0.0003
     24 C         138.2314  141.6617  154.2823 C.ar    1  UNL1       -0.0026
     25 C         140.6955  139.8207  160.6219 C.3     1  UNL1        0.1003
     26 C         140.8873  137.8186  162.8479 C.3     1  UNL1        0.0519
     27 C         141.4753  139.1880  163.0181 C.ar    1  UNL1        0.0598
     28 N         142.1592  139.5564  164.3013 N.ar    1  UNL1       -0.2160
     29 C         142.7473  140.9258  164.4715 C.ar    1  UNL1        0.2293
     30 C         142.6514  141.9269  163.3585 C.ar    1  UNL1        0.0578
     31 C         141.9675  141.5585  162.0754 C.ar    1  UNL1        0.0031
     32 C         141.3794  140.1891  161.9052 C.ar    1  UNL1        0.0077
     33 O         143.4312  141.2942  165.7547 O.3     1  UNL1       -0.4361
     34 C         142.6358  141.8632  166.8920 C.ar    1  UNL1        0.1472
     35 C         143.3007  142.1396  168.2079 C.ar    1  UNL1        0.0376
     36 C         142.5052  142.7086  169.3453 C.ar    1  UNL1        0.0043
     37 C         141.0448  143.0011  169.1667 C.ar    1  UNL1        0.0142
     38 C         140.3800  142.7247  167.8508 C.ar    1  UNL1        0.0043
     39 C         141.1755  142.1557  166.7135 C.ar    1  UNL1        0.0376
     40 C         140.2494  143.5701  170.3040 C.2     1  UNL1        0.0729
     41 O         139.7920  142.6779  171.4197 O.co2   1  UNL1       -0.5446
     42 O         139.9113  145.0314  170.3256 O.co2   1  UNL1       -0.5446
@<TRIPOS>UNITY_ATOM_ATTR
41 1
charge -1
@<TRIPOS>BOND
     1    26    27    1
     2    27    28   ar
     3    28    29   ar
     4    29    33    1
     5    33    34    1
     6    34    35   ar
     7    35    36   ar
     8    36    37   ar
     9    37    40    1
    10    40    41   ar
    11    40    42   ar
    12    37    38   ar
    13    38    39   ar
    14    29    30   ar
    15    30    31   ar
    16    31    32   ar
    17    32    25    1
    18    25     1    1
    19     1     2    1
    20     2     3    1
    21     3     4    1
    22     4     7    1
    23     7     8   am
    24     8     9    2
    25     8    10   am
    26    10    13    1
    27    13    14    1
    28    14    15    1
    29    15    16    1
    30    16    17    1
    31    17    18    1
    32    10    11    1
    33    11    12    1
    34    12    19    1
    35    19    20   ar
    36    20    21   ar
    37    21    22   ar
    38    22    23   ar
    39    23    24   ar
    40     4     5    1
    41     5     6    1
    42    32    27   ar
    43     6     1    1
    44    39    34   ar
    45    12     7    1
    46    24    19   ar
    47    18    13    1
@<TRIPOS>MOLECULE
*****
 42 47 0 0 0
SMALL
GASTEIGER

@<TRIPOS>ATOM
      1 N         143.3141  142.7012  159.7591 N.3     1  UNL1       -0.2688
      2 C         143.9530  141.6278  160.5896 C.3     1  UNL1        0.0741
      3 C         143.4627  141.3658  161.9828 C.3     1  UNL1        0.0372
      4 C         142.3334  142.1771  162.5455 C.3     1  UNL1        0.0799
      5 C         141.6945  143.2505  161.7150 C.3     1  UNL1        0.0372
      6 C         142.1849  143.5125  160.3218 C.3     1  UNL1        0.0741
      7 N         141.8431  141.9151  163.9386 N.am    1  UNL1       -0.2618
      8 C         142.3225  142.5981  165.1851 C.2     1  UNL1        0.3074
      9 O         143.3764  143.6630  165.2573 O.2     1  UNL1       -0.2523
     10 N         141.5630  142.0292  166.3468 N.am    1  UNL1       -0.2635
     11 C         140.6141  140.9946  165.8183 C.3     1  UNL1        0.1192
     12 C         140.7873  140.9241  164.3300 C.3     1  UNL1        0.1191
     13 C         141.7240  142.4253  167.7845 C.3     1  UNL1        0.0819
     14 C         140.5745  143.0409  168.5260 C.3     1  UNL1        0.0520
     15 C         140.7356  143.4371  169.9638 C.3     1  UNL1        0.1439
     16 O         142.0460  143.2177  170.6600 O.3     1  UNL1       -0.3537
     17 C         143.1954  142.6021  169.9184 C.3     1  UNL1        0.1439
     18 C         143.0343  142.2059  168.4807 C.3     1  UNL1        0.0520
     19 C         140.0364  140.0211  163.3968 C.ar    1  UNL1       -0.0026
     20 C         138.5984  140.3027  163.0757 C.ar    1  UNL1       -0.0026
     21 C         137.8476  139.3997  162.1425 C.ar    1  UNL1       -0.0003
     22 C         138.5346  138.2151  161.5305 C.ar    1  UNL1       -0.0000
     23 C         139.9725  137.9334  161.8516 C.ar    1  UNL1       -0.0003
     24 C         140.7233  138.8364  162.7847 C.ar    1  UNL1       -0.0026
     25 C         143.8044  142.9632  158.3660 C.3     1  UNL1        0.1003
     26 C         141.2202  142.2625  157.0127 C.3     1  UNL1        0.0519
     27 C         142.4755  141.5194  156.6632 C.ar    1  UNL1        0.0598
     28 N         142.4386  140.4259  155.6371 N.ar    1  UNL1       -0.2160
     29 C         143.6938  139.6828  155.2876 C.ar    1  UNL1        0.2293
     30 C         144.9859  140.0331  155.9642 C.ar    1  UNL1        0.0578
     31 C         145.0227  141.1266  156.9903 C.ar    1  UNL1        0.0031
     32 C         143.7675  141.8697  157.3398 C.ar    1  UNL1        0.0077
     33 O         143.6569  138.5893  154.2614 O.3     1  UNL1       -0.4361
     34 C         143.2418  137.2032  154.6570 C.ar    1  UNL1        0.1472
     35 C         142.0153  136.5864  154.0525 C.ar    1  UNL1        0.0376
     36 C         141.6001  135.2004  154.4482 C.ar    1  UNL1        0.0043
     37 C         142.4114  134.4311  155.4483 C.ar    1  UNL1        0.0142
     38 C         143.6378  135.0480  156.0527 C.ar    1  UNL1        0.0043
     39 C         144.0530  136.4340  155.6571 C.ar    1  UNL1        0.0376
     40 C         141.9962  133.0451  155.8439 C.2     1  UNL1        0.0729
     41 O         140.9367  132.3275  155.0614 O.co2   1  UNL1       -0.5446
     42 O         142.6407  132.3767  157.0220 O.co2   1  UNL1       -0.5446
@<TRIPOS>UNITY_ATOM_ATTR
41 1
charge -1
@<TRIPOS>BOND
     1    26    27    1
     2    27    28   ar
     3    28    29   ar
     4    29    33    1
     5    33    34    1
     6    34    35   ar
     7    35    36   ar
     8    36    37   ar
     9    37    40    1
    10    40    41   ar
    11    40    42   ar
    12    37    38   ar
    13    38    39   ar
    14    29    30   ar
    15    30    31   ar
    16    31    32   ar
    17    32    25    1
    18    25     1    1
    19     1     2    1
    20     2     3    1
    21     3     4    1
    22     4     7    1
    23     7     8   am
    24     8     9    2
    25     8    10   am
    26    10    13    1
    27    13    14    1
    28    14    15    1
    29    15    16    1
    30    16    17    1
    31    17    18    1
    32    10    11    1
    33    11    12    1
    34    12    19    1
    35    19    20   ar
    36    20    21   ar
    37    21    22   ar
    38    22    23   ar
    39    23    24   ar
    40     4     5    1
    41     5     6    1
    42    32    27   ar
    43     6     1    1
    44    39    34   ar
    45    12     7    1
    46    24    19   ar
    47    18    13    1
@<TRIPOS>MOLECULE
*****
 42 47 0 0 0
SMALL
GASTEIGER

@<TRIPOS>ATOM
      1 N         142.4265  139.1330  160.9776 N.3     1  UNL1       -0.2688
      2 C         140.9761  138.8762  161.2614 C.3     1  UNL1        0.0741
      3 C         139.9205  139.5131  160.4069 C.3     1  UNL1        0.0372
      4 C         140.3154  140.4068  159.2687 C.3     1  UNL1        0.0799
      5 C         141.7657  140.6636  158.9850 C.3     1  UNL1        0.0372
      6 C         142.8213  140.0267  159.8395 C.3     1  UNL1        0.0741
      7 N         139.2598  141.0437  158.4142 N.am    1  UNL1       -0.2618
      8 C         138.5054  140.3777  157.3020 C.2     1  UNL1        0.3074
      9 O         138.6740  138.9577  156.8489 O.2     1  UNL1       -0.2523
     10 N         137.5526  141.3808  156.7223 N.am    1  UNL1       -0.2635
     11 C         137.7182  142.6669  157.4764 C.3     1  UNL1        0.1192
     12 C         138.7733  142.4585  158.5220 C.3     1  UNL1        0.1191
     13 C         136.6013  141.1401  155.5878 C.3     1  UNL1        0.0819
     14 C         137.0879  141.2206  154.1712 C.3     1  UNL1        0.0520
     15 C         136.1366  140.9799  153.0367 C.3     1  UNL1        0.1439
     16 O         134.6988  140.6587  153.3189 O.3     1  UNL1       -0.3537
     17 C         134.2123  140.5782  154.7355 C.3     1  UNL1        0.1439
     18 C         135.1636  140.8189  155.8700 C.3     1  UNL1        0.0520
     19 C         139.2570  143.4849  159.5032 C.ar    1  UNL1       -0.0026
     20 C         138.9036  143.3591  160.9556 C.ar    1  UNL1       -0.0026
     21 C         139.3873  144.3854  161.9368 C.ar    1  UNL1       -0.0003
     22 C         140.2243  145.5375  161.4656 C.ar    1  UNL1       -0.0000
     23 C         140.5777  145.6633  160.0133 C.ar    1  UNL1       -0.0003
     24 C         140.0941  144.6370  159.0321 C.ar    1  UNL1       -0.0026
     25 C         143.4821  138.4961  161.8321 C.3     1  UNL1        0.1003
     26 C         145.1932  140.4513  163.3319 C.3     1  UNL1        0.0519
     27 C         144.2450  139.5591  164.0767 C.ar    1  UNL1        0.0598
     28 N         144.1523  139.6444  165.5714 N.ar    1  UNL1       -0.2160
     29 C         143.2040  138.7522  166.3162 C.ar    1  UNL1        0.2293
     30 C         142.3485  137.7746  165.5663 C.ar    1  UNL1        0.0578
     31 C         142.4412  137.6893  164.0717 C.ar    1  UNL1        0.0031
     32 C         143.3894  138.5815  163.3269 C.ar    1  UNL1        0.0077
     33 O         143.1114  138.8376  167.8109 O.3     1  UNL1       -0.4361
     34 C         142.3525  139.9614  168.4523 C.ar    1  UNL1        0.1472
     35 C         142.6369  141.3802  168.0570 C.ar    1  UNL1        0.0376
     36 C         141.8781  142.5039  168.6984 C.ar    1  UNL1        0.0043
     37 C         140.8348  142.2088  169.7351 C.ar    1  UNL1        0.0142
     38 C         140.5505  140.7901  170.1303 C.ar    1  UNL1        0.0043
     39 C         141.3093  139.6663  169.4889 C.ar    1  UNL1        0.0376
     40 C         140.0760  143.3326  170.3765 C.2     1  UNL1        0.0729
     41 O         140.5614  144.7444  170.2313 O.co2   1  UNL1       -0.5446
     42 O         138.8317  143.0444  171.1631 O.co2   1  UNL1       -0.5446
@<TRIPOS>UNITY_ATOM_ATTR
41 1
charge -1
@<TRIPOS>BOND
     1    26    27    1
     2    27    28   ar
     3    28    29   ar
     4    29    33    1
     5    33    34    1
     6    34    35   ar
     7    35    36   ar
     8    36    37   ar
     9    37    40    1
    10    40    41   ar
    11    40    42   ar
    12    37    38   ar
    13    38    39   ar
    14    29    30   ar
    15    30    31   ar
    16    31    32   ar
    17    32    25    1
    18    25     1    1
    19     1     2    1
    20     2     3    1
    21     3     4    1
    22     4     7    1
    23     7     8   am
    24     8     9    2
    25     8    10   am
    26    10    13    1
    27    13    14    1
    28    14    15    1
    29    15    16    1
    30    16    17    1
    31    17    18    1
    32    10    11    1
    33    11    12    1
    34    12    19    1
    35    19    20   ar
    36    20    21   ar
    37    21    22   ar
    38    22    23   ar
    39    23    24   ar
    40     4     5    1
    41     5     6    1
    42    32    27   ar
    43     6     1    1
    44    39    34   ar
    45    12     7    1
    46    24    19   ar
    47    18    13    1
@<TRIPOS>MOLECULE
*****
 42 47 0 0 0
SMALL
GASTEIGER

@<TRIPOS>ATOM
      1 N         141.2783  139.6197  159.2807 N.3     1  UNL1       -0.2688
      2 C         140.0888  138.8472  158.7922 C.3     1  UNL1        0.0741
      3 C         140.2672  137.7596  157.7747 C.3     1  UNL1        0.0372
      4 C         141.6350  137.4445  157.2456 C.3     1  UNL1        0.0799
      5 C         142.8244  138.2170  157.7341 C.3     1  UNL1        0.0372
      6 C         142.6460  139.3046  158.7516 C.3     1  UNL1        0.0741
      7 N         141.8134  136.3570  156.2281 N.am    1  UNL1       -0.2618
      8 C         142.5844  135.0851  156.4229 C.2     1  UNL1        0.3074
      9 O         143.3124  134.6775  157.6695 O.2     1  UNL1       -0.2523
     10 N         142.4996  134.2924  155.1523 N.am    1  UNL1       -0.2635
     11 C         141.6762  135.0743  154.1722 C.3     1  UNL1        0.1192
     12 C         141.2521  136.3503  154.8371 C.3     1  UNL1        0.1191
     13 C         143.1279  132.9529  154.9052 C.3     1  UNL1        0.0819
     14 C         144.1326  132.4055  155.8752 C.3     1  UNL1        0.0520
     15 C         144.7609  131.0660  155.6282 C.3     1  UNL1        0.1439
     16 O         144.3845  130.2740  154.4112 O.3     1  UNL1       -0.3537
     17 C         143.3798  130.8215  153.4413 C.3     1  UNL1        0.1439
     18 C         142.7515  132.1609  153.6883 C.3     1  UNL1        0.0520
     19 C         140.4139  137.4300  154.2194 C.ar    1  UNL1       -0.0026
     20 C         141.0721  138.6038  153.5567 C.ar    1  UNL1       -0.0026
     21 C         140.2338  139.6835  152.9389 C.ar    1  UNL1       -0.0003
     22 C         138.7375  139.5895  152.9839 C.ar    1  UNL1       -0.0000
     23 C         138.0793  138.4157  153.6465 C.ar    1  UNL1       -0.0003
     24 C         138.9175  137.3361  154.2642 C.ar    1  UNL1       -0.0026
     25 C         141.0999  140.7073  160.2982 C.3     1  UNL1        0.1003
     26 C         138.3793  141.6276  161.1652 C.3     1  UNL1        0.0519
     27 C         139.2377  140.8342  162.1054 C.ar    1  UNL1        0.0598
     28 N         138.7358  140.5011  163.4791 N.ar    1  UNL1       -0.2160
     29 C         139.5941  139.7078  164.4193 C.ar    1  UNL1        0.2293
     30 C         140.9543  139.2476  163.9858 C.ar    1  UNL1        0.0578
     31 C         141.4562  139.5808  162.6121 C.ar    1  UNL1        0.0031
     32 C         140.5979  140.3741  161.6719 C.ar    1  UNL1        0.0077
     33 O         139.0921  139.3746  165.7930 O.3     1  UNL1       -0.4361
     34 C         139.4445  140.2560  166.9545 C.ar    1  UNL1        0.1472
     35 C         140.0996  141.5843  166.7164 C.ar    1  UNL1        0.0376
     36 C         140.4520  142.4656  167.8778 C.ar    1  UNL1        0.0043
     37 C         140.1493  142.0187  169.2774 C.ar    1  UNL1        0.0142
     38 C         139.4943  140.6905  169.5155 C.ar    1  UNL1        0.0043
     39 C         139.1419  139.8091  168.3540 C.ar    1  UNL1        0.0376
     40 C         140.5017  142.9001  170.4389 C.2     1  UNL1        0.0729
     41 O         140.7947  144.3540  170.2152 O.co2   1  UNL1       -0.5446
     42 O         140.5611  142.3274  171.8240 O.co2   1  UNL1       -0.5446
@<TRIPOS>UNITY_ATOM_ATTR
41 1
charge -1
@<TRIPOS>BOND
     1    26    27    1
     2    27    28   ar
     3    28    29   ar
     4    29    33    1
     5    33    34    1
     6    34    35   ar
     7    35    36   ar
     8    36    37   ar
     9    37    40    1
    10    40    41   ar
    11    40    42   ar
    12    37    38   ar
    13    38    39   ar
    14    29    30   ar
    15    30    31   ar
    16    31    32   ar
    17    32    25    1
    18    25     1    1
    19     1     2    1
    20     2     3    1
    21     3     4    1
    22     4     7    1
    23     7     8   am
    24     8     9    2
    25     8    10   am
    26    10    13    1
    27    13    14    1
    28    14    15    1
    29    15    16    1
    30    16    17    1
    31    17    18    1
    32    10    11    1
    33    11    12    1
    34    12    19    1
    35    19    20   ar
    36    20    21   ar
    37    21    22   ar
    38    22    23   ar
    39    23    24   ar
    40     4     5    1
    41     5     6    1
    42    32    27   ar
    43     6     1    1
    44    39    34   ar
    45    12     7    1
    46    24    19   ar
    47    18    13    1
