@<TRIPOS>MOLECULE
*****
 42 46 0 0 0
SMALL
GASTEIGER

@<TRIPOS>ATOM
      1 N         141.5548  138.2293  157.9656 N.3     1  UNL1       -0.2689
      2 C         140.1203  138.1345  158.3937 C.3     1  UNL1        0.0741
      3 C         139.7250  138.5320  159.7851 C.3     1  UNL1        0.0369
      4 C         140.7641  139.0243  160.7483 C.3     1  UNL1        0.0747
      5 C         142.1986  139.1191  160.3202 C.3     1  UNL1        0.0369
      6 C         142.5940  138.7217  158.9289 C.3     1  UNL1        0.0741
      7 N         140.3688  139.4217  162.1395 N.am    1  UNL1       -0.2999
      8 C         140.3603  138.3999  163.2376 C.2     1  UNL1        0.2806
      9 O         140.7471  136.9806  162.9445 O.2     1  UNL1       -0.2668
     10 H         140.1149  140.3532  162.3320 H       1  UNL1        0.1498
     11 C         139.9649  138.7974  164.6290 C.ar    1  UNL1        0.2014
     12 C         138.7070  138.2507  165.2363 C.ar    1  UNL1        0.0843
     13 C         138.3116  138.6482  166.6275 C.ar    1  UNL1        0.2018
     14 O         137.0537  138.1014  167.2349 O.2     1  UNL1       -0.2864
     15 C         139.1741  139.5924  167.4115 C.ar    1  UNL1        0.0737
     16 C         138.7787  139.9899  168.8028 C.ar    1  UNL1        0.0085
     17 C         139.6412  140.9341  169.5867 C.ar    1  UNL1        0.0299
     18 C         140.8990  141.4808  168.9794 C.ar    1  UNL1        0.1432
     19 F         141.7615  142.4251  169.7634 F       1  UNL1       -0.2041
     20 C         141.2944  141.0833  167.5881 C.ar    1  UNL1        0.0672
     21 C         140.4320  140.1391  166.8042 C.ar    1  UNL1        0.1508
     22 O         140.8274  139.7416  165.4129 O.2     1  UNL1       -0.4486
     23 C         141.9502  137.8319  156.5744 C.3     1  UNL1        0.0992
     24 C         143.5366  133.6963  155.7808 C.ar    1  UNL1        0.0781
     25 C         142.9334  134.4953  154.6638 C.ar    1  UNL1        0.0167
     26 C         142.4045  135.8738  154.9284 C.ar    1  UNL1       -0.0015
     27 C         142.4790  136.4533  156.3098 C.ar    1  UNL1       -0.0038
     28 C         143.0822  135.6543  157.4268 C.ar    1  UNL1        0.0280
     29 C         143.6111  134.2758  157.1623 C.ar    1  UNL1        0.1532
     30 F         144.2144  133.4768  158.2793 F       1  UNL1       -0.2029
     31 O         141.6509  131.3670  155.6440 O.2     1  UNL1       -0.2747
     32 C         143.1227  131.1531  155.4478 C.2     1  UNL1        0.2276
     33 N         144.0655  132.3177  155.5163 N.am    1  UNL1       -0.2821
     34 H         145.0314  132.1773  155.3876 H       1  UNL1        0.1549
     35 C         143.6515  129.7746  155.1833 C.3     1  UNL1        0.1026
     36 C         144.4481  129.0621  156.2359 C.3     1  UNL1        0.0817
     37 N         143.7630  128.5159  157.4534 N.3     1  UNL1       -0.2722
     38 C         144.3091  128.8135  158.8183 C.3     1  UNL1        0.0721
     39 C         143.6240  128.2674  160.0359 C.3     1  UNL1        0.0174
     40 C         142.3928  127.4235  159.8884 C.3     1  UNL1        0.0029
     41 C         141.8465  127.1258  158.5235 C.3     1  UNL1        0.0174
     42 C         142.5316  127.6720  157.3060 C.3     1  UNL1        0.0721
@<TRIPOS>BOND
     1    31    32    2
     2    32    35    1
     3    35    36    1
     4    36    37    1
     5    37    38    1
     6    38    39    1
     7    39    40    1
     8    40    41    1
     9    41    42    1
    10    32    33   am
    11    33    24    1
    12    24    25   ar
    13    25    26   ar
    14    26    27   ar
    15    27    23    1
    16    23     1    1
    17     1     2    1
    18     2     3    1
    19     3     4    1
    20     4     7    1
    21     7     8   am
    22     8     9    2
    23     8    11    1
    24    11    12   ar
    25    12    13   ar
    26    13    14    2
    27    13    15   ar
    28    15    16   ar
    29    16    17   ar
    30    17    18   ar
    31    18    19    1
    32    18    20   ar
    33    20    21   ar
    34    21    22   ar
    35     4     5    1
    36     5     6    1
    37    27    28   ar
    38    28    29   ar
    39    29    30    1
    40    42    37    1
    41    29    24   ar
    42     6     1    1
    43    22    11   ar
    44    21    15   ar
    45    33    34    1
    46     7    10    1
@<TRIPOS>MOLECULE
*****
 42 46 0 0 0
SMALL
GASTEIGER

@<TRIPOS>ATOM
      1 N         141.4968  138.5625  157.8670 N.3     1  UNL1       -0.2689
      2 C         142.5276  139.1156  158.8059 C.3     1  UNL1        0.0741
      3 C         142.1479  139.4670  160.2139 C.3     1  UNL1        0.0369
      4 C         140.7375  139.2654  160.6830 C.3     1  UNL1        0.0747
      5 C         139.7067  138.7123  159.7441 C.3     1  UNL1        0.0369
      6 C         140.0863  138.3608  158.3361 C.3     1  UNL1        0.0741
      7 N         140.3579  139.6168  162.0909 N.am    1  UNL1       -0.2999
      8 C         140.2840  138.5449  163.1376 C.2     1  UNL1        0.2806
      9 O         140.5897  137.1215  162.7763 O.2     1  UNL1       -0.2668
     10 H         140.1573  140.5510  162.3280 H       1  UNL1        0.1498
     11 C         139.9044  138.8964  164.5456 C.ar    1  UNL1        0.2014
     12 C         138.7159  138.2437  165.1871 C.ar    1  UNL1        0.0843
     13 C         138.3363  138.5952  166.5950 C.ar    1  UNL1        0.2018
     14 O         137.1478  137.9425  167.2365 O.2     1  UNL1       -0.2864
     15 C         139.1452  139.5993  167.3615 C.ar    1  UNL1        0.0737
     16 C         138.7655  139.9508  168.7695 C.ar    1  UNL1        0.0085
     17 C         139.5744  140.9549  169.5359 C.ar    1  UNL1        0.0299
     18 C         140.7629  141.6076  168.8944 C.ar    1  UNL1        0.1432
     19 F         141.5717  142.6117  169.6609 F       1  UNL1       -0.2041
     20 C         141.1425  141.2561  167.4865 C.ar    1  UNL1        0.0672
     21 C         140.3336  140.2520  166.7200 C.ar    1  UNL1        0.1508
     22 O         140.7133  139.9005  165.3120 O.2     1  UNL1       -0.4486
     23 C         141.8764  138.2111  156.4591 C.3     1  UNL1        0.0992
     24 C         143.0942  134.0002  155.4413 C.ar    1  UNL1        0.0781
     25 C         142.5044  134.8866  154.3847 C.ar    1  UNL1        0.0167
     26 C         142.0985  136.2902  154.7239 C.ar    1  UNL1       -0.0015
     27 C         142.2823  136.8075  156.1198 C.ar    1  UNL1       -0.0038
     28 C         142.8720  135.9211  157.1765 C.ar    1  UNL1        0.0280
     29 C         143.2779  134.5175  156.8372 C.ar    1  UNL1        0.1532
     30 F         143.8677  133.6311  157.8940 F       1  UNL1       -0.2029
     31 O         141.0163  131.8461  155.2351 O.2     1  UNL1       -0.2747
     32 C         142.4612  131.5196  154.9990 C.2     1  UNL1        0.2276
     33 N         143.5001  132.5966  155.1021 N.am    1  UNL1       -0.2821
     34 H         144.4484  132.3823  154.9471 H       1  UNL1        0.1549
     35 C         142.8671  130.1160  154.6597 C.3     1  UNL1        0.1026
     36 C         141.8466  129.1432  154.1474 C.3     1  UNL1        0.0817
     37 N         141.0946  128.2699  155.1076 N.3     1  UNL1       -0.2722
     38 C         139.6203  128.0575  154.9312 C.3     1  UNL1        0.0721
     39 C         138.8682  127.1842  155.8914 C.3     1  UNL1        0.0174
     40 C         139.5905  126.5235  157.0279 C.3     1  UNL1        0.0029
     41 C         141.0649  126.7359  157.2042 C.3     1  UNL1        0.0174
     42 C         141.8170  127.6092  156.2441 C.3     1  UNL1        0.0721
@<TRIPOS>BOND
     1    31    32    2
     2    32    35    1
     3    35    36    1
     4    36    37    1
     5    37    38    1
     6    38    39    1
     7    39    40    1
     8    40    41    1
     9    41    42    1
    10    32    33   am
    11    33    24    1
    12    24    25   ar
    13    25    26   ar
    14    26    27   ar
    15    27    23    1
    16    23     1    1
    17     1     2    1
    18     2     3    1
    19     3     4    1
    20     4     7    1
    21     7     8   am
    22     8     9    2
    23     8    11    1
    24    11    12   ar
    25    12    13   ar
    26    13    14    2
    27    13    15   ar
    28    15    16   ar
    29    16    17   ar
    30    17    18   ar
    31    18    19    1
    32    18    20   ar
    33    20    21   ar
    34    21    22   ar
    35     4     5    1
    36     5     6    1
    37    27    28   ar
    38    28    29   ar
    39    29    30    1
    40    42    37    1
    41    29    24   ar
    42     6     1    1
    43    22    11   ar
    44    21    15   ar
    45    33    34    1
    46     7    10    1
@<TRIPOS>MOLECULE
*****
 42 46 0 0 0
SMALL
GASTEIGER

@<TRIPOS>ATOM
      1 N         142.2979  138.1800  158.5043 N.3     1  UNL1       -0.2689
      2 C         143.2183  138.0872  159.6851 C.3     1  UNL1        0.0741
      3 C         142.7357  138.4935  161.0460 C.3     1  UNL1        0.0369
      4 C         141.3327  138.9927  161.2261 C.3     1  UNL1        0.0747
      5 C         140.4123  139.0855  160.0454 C.3     1  UNL1        0.0369
      6 C         140.8948  138.6792  158.6845 C.3     1  UNL1        0.0741
      7 N         140.8502  139.3990  162.5870 N.am    1  UNL1       -0.2999
      8 C         140.5478  138.3530  163.6188 C.2     1  UNL1        0.2806
      9 O         140.7280  136.9007  163.2896 O.2     1  UNL1       -0.2668
     10 H         140.7319  140.3522  162.8030 H       1  UNL1        0.1498
     11 C         140.0653  138.7594  164.9797 C.ar    1  UNL1        0.2014
     12 C         138.7767  138.2079  165.5141 C.ar    1  UNL1        0.0843
     13 C         138.2942  138.6142  166.8750 C.ar    1  UNL1        0.2018
     14 O         137.0056  138.0628  167.4094 O.2     1  UNL1       -0.2864
     15 C         139.1001  139.5721  167.7015 C.ar    1  UNL1        0.0737
     16 C         138.6175  139.9784  169.0623 C.ar    1  UNL1        0.0085
     17 C         139.4235  140.9362  169.8888 C.ar    1  UNL1        0.0299
     18 C         140.7120  141.4877  169.3543 C.ar    1  UNL1        0.1432
     19 F         141.5179  142.4455  170.1809 F       1  UNL1       -0.2041
     20 C         141.1946  141.0814  167.9935 C.ar    1  UNL1        0.0672
     21 C         140.3886  140.1236  167.1671 C.ar    1  UNL1        0.1508
     22 O         140.8712  139.7172  165.8061 O.2     1  UNL1       -0.4486
     23 C         142.7804  137.7737  157.1435 C.3     1  UNL1        0.0992
     24 C         141.5525  133.8054  155.4128 C.ar    1  UNL1        0.0781
     25 C         140.8558  135.0608  154.9788 C.ar    1  UNL1        0.0167
     26 C         141.2651  136.3836  155.5557 C.ar    1  UNL1       -0.0015
     27 C         142.3711  136.4510  156.5666 C.ar    1  UNL1       -0.0038
     28 C         143.0679  135.1956  157.0006 C.ar    1  UNL1        0.0280
     29 C         142.6586  133.8728  156.4238 C.ar    1  UNL1        0.1532
     30 F         143.3555  132.6174  156.8579 F       1  UNL1       -0.2029
     31 O         142.1295  133.1806  152.5359 O.2     1  UNL1       -0.2747
     32 C         141.4317  132.1702  153.3975 C.2     1  UNL1        0.2276
     33 N         141.1433  132.4827  154.8360 N.am    1  UNL1       -0.2821
     34 H         140.6853  131.8195  155.4015 H       1  UNL1        0.1549
     35 C         141.0224  130.8475  152.8207 C.3     1  UNL1        0.1026
     36 C         141.7640  129.6008  153.2030 C.3     1  UNL1        0.0817
     37 N         142.6617  129.6009  154.4047 N.3     1  UNL1       -0.2722
     38 C         142.1445  129.1180  155.7273 C.3     1  UNL1        0.0721
     39 C         143.0423  129.1181  156.9289 C.3     1  UNL1        0.0174
     40 C         144.4572  129.6010  156.8081 C.3     1  UNL1        0.0029
     41 C         144.9745  130.0840  155.4854 C.3     1  UNL1        0.0174
     42 C         144.0767  130.0839  154.2837 C.3     1  UNL1        0.0721
@<TRIPOS>BOND
     1    31    32    2
     2    32    35    1
     3    35    36    1
     4    36    37    1
     5    37    38    1
     6    38    39    1
     7    39    40    1
     8    40    41    1
     9    41    42    1
    10    32    33   am
    11    33    24    1
    12    24    25   ar
    13    25    26   ar
    14    26    27   ar
    15    27    23    1
    16    23     1    1
    17     1     2    1
    18     2     3    1
    19     3     4    1
    20     4     7    1
    21     7     8   am
    22     8     9    2
    23     8    11    1
    24    11    12   ar
    25    12    13   ar
    26    13    14    2
    27    13    15   ar
    28    15    16   ar
    29    16    17   ar
    30    17    18   ar
    31    18    19    1
    32    18    20   ar
    33    20    21   ar
    34    21    22   ar
    35     4     5    1
    36     5     6    1
    37    27    28   ar
    38    28    29   ar
    39    29    30    1
    40    42    37    1
    41    29    24   ar
    42     6     1    1
    43    22    11   ar
    44    21    15   ar
    45    33    34    1
    46     7    10    1
@<TRIPOS>MOLECULE
*****
 42 46 0 0 0
SMALL
GASTEIGER

@<TRIPOS>ATOM
      1 N         141.2202  138.2351  157.5807 N.3     1  UNL1       -0.2689
      2 C         142.3015  138.2841  158.6191 C.3     1  UNL1        0.0741
      3 C         141.9712  138.6810  160.0275 C.3     1  UNL1        0.0369
      4 C         140.5598  139.0288  160.3974 C.3     1  UNL1        0.0747
      5 C         139.4785  138.9798  159.3589 C.3     1  UNL1        0.0369
      6 C         139.8087  138.5830  157.9506 C.3     1  UNL1        0.0741
      7 N         140.2296  139.4256  161.8057 N.am    1  UNL1       -0.2999
      8 C         140.3863  138.4344  162.9206 C.2     1  UNL1        0.2806
      9 O         140.8732  137.0463  162.6271 O.2     1  UNL1       -0.2668
     10 H         139.9101  140.3367  161.9984 H       1  UNL1        0.1498
     11 C         140.0561  138.8313  164.3290 C.ar    1  UNL1        0.2014
     12 C         138.7940  138.3368  164.9712 C.ar    1  UNL1        0.0843
     13 C         138.4638  138.7336  166.3796 C.ar    1  UNL1        0.2018
     14 O         137.2017  138.2391  167.0218 O.2     1  UNL1       -0.2864
     15 C         139.3957  139.6251  167.1457 C.ar    1  UNL1        0.0737
     16 C         139.0655  140.0219  168.5540 C.ar    1  UNL1        0.0085
     17 C         139.9974  140.9133  169.3201 C.ar    1  UNL1        0.0299
     18 C         141.2595  141.4079  168.6779 C.ar    1  UNL1        0.1432
     19 F         142.1915  142.2993  169.4440 F       1  UNL1       -0.2041
     20 C         141.5898  141.0110  167.2695 C.ar    1  UNL1        0.0672
     21 C         140.6578  140.1196  166.5035 C.ar    1  UNL1        0.1508
     22 O         140.9880  139.7227  165.0951 O.2     1  UNL1       -0.4486
     23 C         141.5503  137.8383  156.1723 C.3     1  UNL1        0.0992
     24 C         143.1770  133.7312  155.3145 C.ar    1  UNL1        0.0781
     25 C         144.1163  134.8658  155.5978 C.ar    1  UNL1        0.0167
     26 C         143.5741  136.2348  155.8837 C.ar    1  UNL1       -0.0015
     27 C         142.0925  136.4692  155.8864 C.ar    1  UNL1       -0.0038
     28 C         141.1532  135.3346  155.6031 C.ar    1  UNL1        0.0280
     29 C         141.6954  133.9656  155.3171 C.ar    1  UNL1        0.1532
     30 F         140.7560  132.8310  155.0338 F       1  UNL1       -0.2029
     31 O         144.1822  132.0165  157.5616 O.2     1  UNL1       -0.2747
     32 C         144.2218  131.5048  156.1520 C.2     1  UNL1        0.2276
     33 N         143.7192  132.3621  155.0285 N.am    1  UNL1       -0.2821
     34 H         143.7451  132.0263  154.1035 H       1  UNL1        0.1549
     35 C         144.7640  130.1358  155.8661 C.3     1  UNL1        0.1026
     36 C         143.8289  129.0178  155.5113 C.3     1  UNL1        0.0817
     37 N         142.5965  129.2986  154.7036 N.3     1  UNL1       -0.2722
     38 C         141.2568  129.3580  155.3756 C.3     1  UNL1        0.0721
     39 C         140.0244  129.6389  154.5680 C.3     1  UNL1        0.0174
     40 C         140.1316  129.8604  153.0884 C.3     1  UNL1        0.0029
     41 C         141.4714  129.8010  152.4163 C.3     1  UNL1        0.0174
     42 C         142.7038  129.5201  153.2239 C.3     1  UNL1        0.0721
@<TRIPOS>BOND
     1    31    32    2
     2    32    35    1
     3    35    36    1
     4    36    37    1
     5    37    38    1
     6    38    39    1
     7    39    40    1
     8    40    41    1
     9    41    42    1
    10    32    33   am
    11    33    24    1
    12    24    25   ar
    13    25    26   ar
    14    26    27   ar
    15    27    23    1
    16    23     1    1
    17     1     2    1
    18     2     3    1
    19     3     4    1
    20     4     7    1
    21     7     8   am
    22     8     9    2
    23     8    11    1
    24    11    12   ar
    25    12    13   ar
    26    13    14    2
    27    13    15   ar
    28    15    16   ar
    29    16    17   ar
    30    17    18   ar
    31    18    19    1
    32    18    20   ar
    33    20    21   ar
    34    21    22   ar
    35     4     5    1
    36     5     6    1
    37    27    28   ar
    38    28    29   ar
    39    29    30    1
    40    42    37    1
    41    29    24   ar
    42     6     1    1
    43    22    11   ar
    44    21    15   ar
    45    33    34    1
    46     7    10    1
@<TRIPOS>MOLECULE
*****
 42 46 0 0 0
SMALL
GASTEIGER

@<TRIPOS>ATOM
      1 N         143.6563  140.8407  154.8968 N.3     1  UNL1       -0.2689
      2 C         142.3439  140.1211  154.7986 C.3     1  UNL1        0.0741
      3 C         142.3043  138.6225  154.8518 C.3     1  UNL1        0.0369
      4 C         143.5771  137.8436  155.0033 C.3     1  UNL1        0.0747
      5 C         144.8896  138.5631  155.1015 C.3     1  UNL1        0.0369
      6 C         144.9292  140.0616  155.0482 C.3     1  UNL1        0.0741
      7 N         143.5375  136.3451  155.0565 N.am    1  UNL1       -0.2999
      8 C         143.1784  135.6493  156.3360 C.2     1  UNL1        0.2806
      9 O         142.8590  136.4520  157.5622 O.2     1  UNL1       -0.2668
     10 H         143.7471  135.8182  154.2517 H       1  UNL1        0.1498
     11 C         143.1388  134.1507  156.3892 C.ar    1  UNL1        0.2014
     12 C         144.1411  133.4029  157.2175 C.ar    1  UNL1        0.0843
     13 C         144.1015  131.9044  157.2707 C.ar    1  UNL1        0.2018
     14 O         145.1038  131.1566  158.0991 O.2     1  UNL1       -0.2864
     15 C         143.0596  131.1536  156.4956 C.ar    1  UNL1        0.0737
     16 C         143.0200  129.6551  156.5488 C.ar    1  UNL1        0.0085
     17 C         141.9781  128.9044  155.7737 C.ar    1  UNL1        0.0299
     18 C         140.9758  129.6522  154.9454 C.ar    1  UNL1        0.1432
     19 F         139.9339  128.9014  154.1702 F       1  UNL1       -0.2041
     20 C         141.0154  131.1507  154.8921 C.ar    1  UNL1        0.0672
     21 C         142.0573  131.9014  155.6672 C.ar    1  UNL1        0.1508
     22 O         142.0969  133.4000  155.6140 O.2     1  UNL1       -0.4486
     23 C         143.6960  142.3391  154.8435 C.3     1  UNL1        0.0992
     24 C         142.2356  144.7546  158.3482 C.ar    1  UNL1        0.0781
     25 C         143.0461  143.5135  158.5783 C.ar    1  UNL1        0.0167
     26 C         143.5329  142.7084  157.4100 C.ar    1  UNL1       -0.0015
     27 C         143.2092  143.1443  156.0118 C.ar    1  UNL1       -0.0038
     28 C         142.3987  144.3853  155.7817 C.ar    1  UNL1        0.0280
     29 C         141.9119  145.1905  156.9500 C.ar    1  UNL1        0.1532
     30 F         141.1014  146.4315  156.7199 F       1  UNL1       -0.2029
     31 O         139.5454  144.1833  159.5470 O.2     1  UNL1       -0.2747
     32 C         140.4038  145.2741  160.1158 C.2     1  UNL1        0.2276
     33 N         141.7488  145.5597  159.5165 N.am    1  UNL1       -0.2821
     34 H         142.3121  146.2756  159.8899 H       1  UNL1        0.1549
     35 C         139.9170  146.0793  161.2841 C.3     1  UNL1        0.1026
     36 C         140.2851  145.6731  162.6804 C.3     1  UNL1        0.0817
     37 N         139.5765  144.5270  163.3395 N.3     1  UNL1       -0.2722
     38 C         140.2031  143.8323  164.5120 C.3     1  UNL1        0.0721
     39 C         139.4945  142.6863  165.1711 C.3     1  UNL1        0.0174
     40 C         138.1593  142.2350  164.6578 C.3     1  UNL1        0.0029
     41 C         137.5326  142.9297  163.4854 C.3     1  UNL1        0.0174
     42 C         138.2412  144.0758  162.8262 C.3     1  UNL1        0.0721
@<TRIPOS>BOND
     1    31    32    2
     2    32    35    1
     3    35    36    1
     4    36    37    1
     5    37    38    1
     6    38    39    1
     7    39    40    1
     8    40    41    1
     9    41    42    1
    10    32    33   am
    11    33    24    1
    12    24    25   ar
    13    25    26   ar
    14    26    27   ar
    15    27    23    1
    16    23     1    1
    17     1     2    1
    18     2     3    1
    19     3     4    1
    20     4     7    1
    21     7     8   am
    22     8     9    2
    23     8    11    1
    24    11    12   ar
    25    12    13   ar
    26    13    14    2
    27    13    15   ar
    28    15    16   ar
    29    16    17   ar
    30    17    18   ar
    31    18    19    1
    32    18    20   ar
    33    20    21   ar
    34    21    22   ar
    35     4     5    1
    36     5     6    1
    37    27    28   ar
    38    28    29   ar
    39    29    30    1
    40    42    37    1
    41    29    24   ar
    42     6     1    1
    43    22    11   ar
    44    21    15   ar
    45    33    34    1
    46     7    10    1
@<TRIPOS>MOLECULE
*****
 42 46 0 0 0
SMALL
GASTEIGER

@<TRIPOS>ATOM
      1 N         143.7507  140.7626  154.8925 N.3     1  UNL1       -0.2689
      2 C         142.4236  140.0974  154.6771 C.3     1  UNL1        0.0741
      3 C         142.3218  138.6010  154.7025 C.3     1  UNL1        0.0369
      4 C         143.5470  137.7699  154.9435 C.3     1  UNL1        0.0747
      5 C         144.8741  138.4351  155.1589 C.3     1  UNL1        0.0369
      6 C         144.9759  139.9314  155.1335 C.3     1  UNL1        0.0741
      7 N         143.4451  136.2736  154.9689 N.am    1  UNL1       -0.2999
      8 C         143.1324  135.5649  156.2534 C.2     1  UNL1        0.2806
      9 O         142.9217  136.3525  157.5125 O.2     1  UNL1       -0.2668
     10 H         143.5834  135.7567  154.1426 H       1  UNL1        0.1498
     11 C         143.0306  134.0685  156.2788 C.ar    1  UNL1        0.2014
     12 C         141.9876  133.3737  155.4545 C.ar    1  UNL1        0.0843
     13 C         141.8857  131.8775  155.4799 C.ar    1  UNL1        0.2018
     14 O         140.8428  131.1826  154.6555 O.2     1  UNL1       -0.2864
     15 C         142.8267  131.0759  156.3296 C.ar    1  UNL1        0.0737
     16 C         142.7248  129.5796  156.3550 C.ar    1  UNL1        0.0085
     17 C         143.6658  128.7781  157.2047 C.ar    1  UNL1        0.0299
     18 C         144.7087  129.4729  158.0291 C.ar    1  UNL1        0.1432
     19 F         145.6498  128.6714  158.8789 F       1  UNL1       -0.2041
     20 C         144.8107  130.9692  158.0037 C.ar    1  UNL1        0.0672
     21 C         143.8697  131.7707  157.1540 C.ar    1  UNL1        0.1508
     22 O         143.9715  133.2671  157.1286 O.2     1  UNL1       -0.4486
     23 C         143.8526  142.2589  154.8671 C.3     1  UNL1        0.0992
     24 C         142.3360  144.6769  158.3460 C.ar    1  UNL1        0.0781
     25 C         143.1415  143.4353  158.5900 C.ar    1  UNL1        0.0167
     26 C         143.6470  142.6293  157.4304 C.ar    1  UNL1       -0.0015
     27 C         143.3471  143.0649  156.0267 C.ar    1  UNL1       -0.0038
     28 C         142.5416  144.3065  155.7827 C.ar    1  UNL1        0.0280
     29 C         142.0361  145.1125  156.9424 C.ar    1  UNL1        0.1532
     30 F         141.2306  146.3542  156.6983 F       1  UNL1       -0.2029
     31 O         139.5520  144.2414  159.3753 O.2     1  UNL1       -0.2747
     32 C         140.4385  145.2652  160.0203 C.2     1  UNL1        0.2276
     33 N         141.8305  145.4829  159.5057 N.am    1  UNL1       -0.2821
     34 H         142.4123  146.1549  159.9290 H       1  UNL1        0.1549
     35 C         139.9330  146.0712  161.1800 C.3     1  UNL1        0.1026
     36 C         140.3133  145.6909  162.5803 C.3     1  UNL1        0.0817
     37 N         139.5965  144.5707  163.2741 N.3     1  UNL1       -0.2722
     38 C         140.1630  143.9835  164.5328 C.3     1  UNL1        0.0721
     39 C         139.4462  142.8634  165.2266 C.3     1  UNL1        0.0174
     40 C         138.1629  142.3304  164.6618 C.3     1  UNL1        0.0029
     41 C         137.5963  142.9176  163.4031 C.3     1  UNL1        0.0174
     42 C         138.3131  144.0378  162.7093 C.3     1  UNL1        0.0721
@<TRIPOS>BOND
     1    31    32    2
     2    32    35    1
     3    35    36    1
     4    36    37    1
     5    37    38    1
     6    38    39    1
     7    39    40    1
     8    40    41    1
     9    41    42    1
    10    32    33   am
    11    33    24    1
    12    24    25   ar
    13    25    26   ar
    14    26    27   ar
    15    27    23    1
    16    23     1    1
    17     1     2    1
    18     2     3    1
    19     3     4    1
    20     4     7    1
    21     7     8   am
    22     8     9    2
    23     8    11    1
    24    11    12   ar
    25    12    13   ar
    26    13    14    2
    27    13    15   ar
    28    15    16   ar
    29    16    17   ar
    30    17    18   ar
    31    18    19    1
    32    18    20   ar
    33    20    21   ar
    34    21    22   ar
    35     4     5    1
    36     5     6    1
    37    27    28   ar
    38    28    29   ar
    39    29    30    1
    40    42    37    1
    41    29    24   ar
    42     6     1    1
    43    22    11   ar
    44    21    15   ar
    45    33    34    1
    46     7    10    1
@<TRIPOS>MOLECULE
*****
 42 46 0 0 0
SMALL
GASTEIGER

@<TRIPOS>ATOM
      1 N         143.5824  140.9743  155.1108 N.3     1  UNL1       -0.2689
      2 C         142.2722  140.2588  154.9649 C.3     1  UNL1        0.0741
      3 C         142.2315  138.7593  154.9739 C.3     1  UNL1        0.0369
      4 C         143.5009  137.9755  155.1288 C.3     1  UNL1        0.0747
      5 C         144.8112  138.6910  155.2746 C.3     1  UNL1        0.0369
      6 C         144.8519  140.1904  155.2656 C.3     1  UNL1        0.0741
      7 N         143.4602  136.4761  155.1378 N.am    1  UNL1       -0.2999
      8 C         143.1310  135.7423  156.4039 C.2     1  UNL1        0.2806
      9 O         142.8425  136.5079  157.6611 O.2     1  UNL1       -0.2668
     10 H         143.6495  135.9736  154.3126 H       1  UNL1        0.1498
     11 C         143.0902  134.2428  156.4129 C.ar    1  UNL1        0.2014
     12 C         144.0872  133.4703  157.2248 C.ar    1  UNL1        0.0843
     13 C         144.0465  131.9709  157.2338 C.ar    1  UNL1        0.2018
     14 O         145.0435  131.1984  158.0458 O.2     1  UNL1       -0.2864
     15 C         143.0088  131.2440  156.4308 C.ar    1  UNL1        0.0737
     16 C         142.9681  129.7446  156.4397 C.ar    1  UNL1        0.0085
     17 C         141.9304  129.0177  155.6367 C.ar    1  UNL1        0.0299
     18 C         140.9334  129.7902  154.8248 C.ar    1  UNL1        0.1432
     19 F         139.8957  129.0633  154.0218 F       1  UNL1       -0.2041
     20 C         140.9741  131.2896  154.8158 C.ar    1  UNL1        0.0672
     21 C         142.0118  132.0165  155.6188 C.ar    1  UNL1        0.1508
     22 O         142.0526  133.5160  155.6099 O.2     1  UNL1       -0.4486
     23 C         143.6231  142.4737  155.1018 C.3     1  UNL1        0.0992
     24 C         142.1421  144.7863  158.6667 C.ar    1  UNL1        0.0781
     25 C         141.8527  145.2793  157.2800 C.ar    1  UNL1        0.0167
     26 C         142.3464  144.5084  156.0916 C.ar    1  UNL1       -0.0015
     27 C         143.1295  143.2446  156.2901 C.ar    1  UNL1       -0.0038
     28 C         143.4188  142.7515  157.6769 C.ar    1  UNL1        0.0280
     29 C         142.9251  143.5224  158.8652 C.ar    1  UNL1        0.1532
     30 F         143.2145  143.0293  160.2520 F       1  UNL1       -0.2029
     31 O         139.4486  144.1748  159.8378 O.2     1  UNL1       -0.2747
     32 C         140.3017  145.2514  160.4406 C.2     1  UNL1        0.2276
     33 N         141.6484  145.5571  159.8550 N.am    1  UNL1       -0.2821
     34 H         142.2083  146.2637  160.2506 H       1  UNL1        0.1549
     35 C         139.8080  146.0223  161.6289 C.3     1  UNL1        0.1026
     36 C         139.7539  145.3679  162.9776 C.3     1  UNL1        0.0817
     37 N         140.9668  144.6751  163.5243 N.3     1  UNL1       -0.2722
     38 C         140.8582  143.2732  164.0465 C.3     1  UNL1        0.0721
     39 C         142.0712  142.5805  164.5932 C.3     1  UNL1        0.0174
     40 C         143.3927  143.2896  164.6177 C.3     1  UNL1        0.0029
     41 C         143.5013  144.6917  164.0955 C.3     1  UNL1        0.0174
     42 C         142.2884  145.3844  163.5488 C.3     1  UNL1        0.0721
@<TRIPOS>BOND
     1    31    32    2
     2    32    35    1
     3    35    36    1
     4    36    37    1
     5    37    38    1
     6    38    39    1
     7    39    40    1
     8    40    41    1
     9    41    42    1
    10    32    33   am
    11    33    24    1
    12    24    25   ar
    13    25    26   ar
    14    26    27   ar
    15    27    23    1
    16    23     1    1
    17     1     2    1
    18     2     3    1
    19     3     4    1
    20     4     7    1
    21     7     8   am
    22     8     9    2
    23     8    11    1
    24    11    12   ar
    25    12    13   ar
    26    13    14    2
    27    13    15   ar
    28    15    16   ar
    29    16    17   ar
    30    17    18   ar
    31    18    19    1
    32    18    20   ar
    33    20    21   ar
    34    21    22   ar
    35     4     5    1
    36     5     6    1
    37    27    28   ar
    38    28    29   ar
    39    29    30    1
    40    42    37    1
    41    29    24   ar
    42     6     1    1
    43    22    11   ar
    44    21    15   ar
    45    33    34    1
    46     7    10    1
@<TRIPOS>MOLECULE
*****
 42 46 0 0 0
SMALL
GASTEIGER

@<TRIPOS>ATOM
      1 N         140.3162  139.1535  158.9843 N.3     1  UNL1       -0.2689
      2 C         139.4931  138.4052  159.9905 C.3     1  UNL1        0.0741
      3 C         139.5775  138.7641  161.4446 C.3     1  UNL1        0.0369
      4 C         140.4851  139.8713  161.8923 C.3     1  UNL1        0.0747
      5 C         141.3083  140.6195  160.8861 C.3     1  UNL1        0.0369
      6 C         141.2239  140.2607  159.4321 C.3     1  UNL1        0.0741
      7 N         140.5695  140.2301  163.3463 N.am    1  UNL1       -0.2999
      8 C         141.6607  139.6536  164.1989 C.2     1  UNL1        0.2806
      9 O         142.6674  138.7183  163.5977 O.2     1  UNL1       -0.2668
     10 H         139.9088  140.8440  163.7409 H       1  UNL1        0.1498
     11 C         141.7451  140.0125  165.6530 C.ar    1  UNL1        0.2014
     12 C         142.4261  139.0858  166.6159 C.ar    1  UNL1        0.0843
     13 C         142.5105  139.4446  168.0699 C.ar    1  UNL1        0.2018
     14 O         143.1916  138.5179  169.0328 O.2     1  UNL1       -0.2864
     15 C         141.9139  140.7303  168.5610 C.ar    1  UNL1        0.0737
     16 C         141.9983  141.0891  170.0149 C.ar    1  UNL1        0.0085
     17 C         141.4016  142.3748  170.5060 C.ar    1  UNL1        0.0299
     18 C         140.7205  143.3015  169.5430 C.ar    1  UNL1        0.1432
     19 F         140.1238  144.5872  170.0341 F       1  UNL1       -0.2041
     20 C         140.6361  142.9427  168.0891 C.ar    1  UNL1        0.0672
     21 C         141.2328  141.6571  167.5980 C.ar    1  UNL1        0.1508
     22 O         141.1484  141.2981  166.1440 O.2     1  UNL1       -0.4486
     23 C         140.2318  138.7946  157.5303 C.3     1  UNL1        0.0992
     24 C         142.6439  135.3548  155.9180 C.ar    1  UNL1        0.0781
     25 C         143.2027  136.2148  157.0126 C.ar    1  UNL1        0.0167
     26 C         142.3987  137.3614  157.5500 C.ar    1  UNL1       -0.0015
     27 C         141.0358  137.6480  156.9929 C.ar    1  UNL1       -0.0038
     28 C         140.4770  136.7880  155.8984 C.ar    1  UNL1        0.0280
     29 C         141.2810  135.6414  155.3609 C.ar    1  UNL1        0.1532
     30 F         140.7221  134.7814  154.2663 F       1  UNL1       -0.2029
     31 O         142.5436  132.6837  157.2801 O.2     1  UNL1       -0.2747
     32 C         143.3978  132.8727  156.0616 C.2     1  UNL1        0.2276
     33 N         143.4479  134.2082  155.3806 N.am    1  UNL1       -0.2821
     34 H         144.0086  134.3322  154.5809 H       1  UNL1        0.1549
     35 C         144.2018  131.7261  155.5242 C.3     1  UNL1        0.1026
     36 C         143.5914  130.3588  155.4349 C.3     1  UNL1        0.0817
     37 N         143.4888  129.5017  156.6616 N.3     1  UNL1       -0.2722
     38 C         144.3309  129.8094  157.8642 C.3     1  UNL1        0.0721
     39 C         144.2282  128.9524  159.0909 C.3     1  UNL1        0.0174
     40 C         143.2835  127.7876  159.1152 C.3     1  UNL1        0.0029
     41 C         142.4413  127.4798  157.9126 C.3     1  UNL1        0.0174
     42 C         142.5439  128.3369  156.6858 C.3     1  UNL1        0.0721
@<TRIPOS>BOND
     1    31    32    2
     2    32    35    1
     3    35    36    1
     4    36    37    1
     5    37    38    1
     6    38    39    1
     7    39    40    1
     8    40    41    1
     9    41    42    1
    10    32    33   am
    11    33    24    1
    12    24    25   ar
    13    25    26   ar
    14    26    27   ar
    15    27    23    1
    16    23     1    1
    17     1     2    1
    18     2     3    1
    19     3     4    1
    20     4     7    1
    21     7     8   am
    22     8     9    2
    23     8    11    1
    24    11    12   ar
    25    12    13   ar
    26    13    14    2
    27    13    15   ar
    28    15    16   ar
    29    16    17   ar
    30    17    18   ar
    31    18    19    1
    32    18    20   ar
    33    20    21   ar
    34    21    22   ar
    35     4     5    1
    36     5     6    1
    37    27    28   ar
    38    28    29   ar
    39    29    30    1
    40    42    37    1
    41    29    24   ar
    42     6     1    1
    43    22    11   ar
    44    21    15   ar
    45    33    34    1
    46     7    10    1
@<TRIPOS>MOLECULE
*****
 42 46 0 0 0
SMALL
GASTEIGER

@<TRIPOS>ATOM
      1 N         140.0277  140.4595  156.2445 N.3     1  UNL1       -0.2689
      2 C         139.3413  139.4399  157.1042 C.3     1  UNL1        0.0741
      3 C         139.5971  137.9784  156.8838 C.3     1  UNL1        0.0369
      4 C         140.5394  137.5365  155.8036 C.3     1  UNL1        0.0747
      5 C         141.2258  138.5561  154.9438 C.3     1  UNL1        0.0369
      6 C         140.9700  140.0176  155.1642 C.3     1  UNL1        0.0741
      7 N         140.7952  136.0751  155.5832 N.am    1  UNL1       -0.2999
      8 C         142.0453  135.4432  156.1198 C.2     1  UNL1        0.2806
      9 O         143.0396  136.2727  156.8768 O.2     1  UNL1       -0.2668
     10 H         140.1426  135.5306  155.0863 H       1  UNL1        0.1498
     11 C         142.3010  133.9816  155.8993 C.ar    1  UNL1        0.2014
     12 C         143.6794  133.4235  156.0957 C.ar    1  UNL1        0.0843
     13 C         143.9352  131.9620  155.8752 C.ar    1  UNL1        0.2018
     14 O         145.3136  131.4039  156.0716 O.2     1  UNL1       -0.2864
     15 C         142.8126  131.0586  155.4584 C.ar    1  UNL1        0.0737
     16 C         143.0684  129.5971  155.2380 C.ar    1  UNL1        0.0085
     17 C         141.9459  128.6938  154.8212 C.ar    1  UNL1        0.0299
     18 C         140.5675  129.2519  154.6249 C.ar    1  UNL1        0.1432
     19 F         139.4449  128.3485  154.2080 F       1  UNL1       -0.2041
     20 C         140.3117  130.7134  154.8453 C.ar    1  UNL1        0.0672
     21 C         141.4342  131.6167  155.2621 C.ar    1  UNL1        0.1508
     22 O         141.1785  133.0783  155.4825 O.2     1  UNL1       -0.4486
     23 C         139.7719  141.9210  156.4649 C.3     1  UNL1        0.0992
     24 C         141.6734  144.0373  159.9514 C.ar    1  UNL1        0.0781
     25 C         142.2963  142.7884  159.4018 C.ar    1  UNL1        0.0167
     26 C         141.6624  142.0829  158.2396 C.ar    1  UNL1       -0.0015
     27 C         140.4057  142.6264  157.6271 C.ar    1  UNL1       -0.0038
     28 C         139.7829  143.8754  158.1767 C.ar    1  UNL1        0.0280
     29 C         140.4167  144.5808  159.3388 C.ar    1  UNL1        0.1532
     30 F         139.7938  145.8298  159.8884 F       1  UNL1       -0.2029
     31 O         140.5787  143.6526  162.7179 O.2     1  UNL1       -0.2747
     32 C         141.7599  144.5504  162.4968 C.2     1  UNL1        0.2276
     33 N         142.3072  144.7427  161.1135 N.am    1  UNL1       -0.2821
     34 H         143.0824  145.3320  160.9684 H       1  UNL1        0.1549
     35 C         142.3938  145.2559  163.6589 C.3     1  UNL1        0.1026
     36 C         143.7132  144.7837  164.1940 C.3     1  UNL1        0.0817
     37 N         144.0651  143.3264  164.1429 N.3     1  UNL1       -0.2722
     38 C         143.5322  142.3892  165.1858 C.3     1  UNL1        0.0721
     39 C         143.8841  140.9319  165.1347 C.3     1  UNL1        0.0174
     40 C         144.7688  140.4119  164.0407 C.3     1  UNL1        0.0029
     41 C         145.3017  141.3491  162.9977 C.3     1  UNL1        0.0174
     42 C         144.9498  142.8064  163.0488 C.3     1  UNL1        0.0721
@<TRIPOS>BOND
     1    31    32    2
     2    32    35    1
     3    35    36    1
     4    36    37    1
     5    37    38    1
     6    38    39    1
     7    39    40    1
     8    40    41    1
     9    41    42    1
    10    32    33   am
    11    33    24    1
    12    24    25   ar
    13    25    26   ar
    14    26    27   ar
    15    27    23    1
    16    23     1    1
    17     1     2    1
    18     2     3    1
    19     3     4    1
    20     4     7    1
    21     7     8   am
    22     8     9    2
    23     8    11    1
    24    11    12   ar
    25    12    13   ar
    26    13    14    2
    27    13    15   ar
    28    15    16   ar
    29    16    17   ar
    30    17    18   ar
    31    18    19    1
    32    18    20   ar
    33    20    21   ar
    34    21    22   ar
    35     4     5    1
    36     5     6    1
    37    27    28   ar
    38    28    29   ar
    39    29    30    1
    40    42    37    1
    41    29    24   ar
    42     6     1    1
    43    22    11   ar
    44    21    15   ar
    45    33    34    1
    46     7    10    1
