@<TRIPOS>MOLECULE
*****
 38 42 0 0 0
SMALL
GASTEIGER

@<TRIPOS>ATOM
      1 C         139.5044  141.9411  158.6745 C.ar    1  UNL1        0.1233
      2 C         138.4863  141.4773  159.6736 C.ar    1  UNL1        0.1181
      3 N         138.8868  140.1102  160.1431 N.ar    1  UNL1       -0.2208
      4 N         140.1526  139.7290  159.4341 N.ar    1  UNL1       -0.0633
      5 N         140.5343  140.8606  158.5265 N.ar    1  UNL1       -0.1287
      6 C         138.5846  144.7657  156.0428 C.ar    1  UNL1        0.1547
      7 C         138.5945  143.4520  156.7668 C.ar    1  UNL1        0.0400
      8 C         139.4945  143.2548  157.9505 C.ar    1  UNL1        0.0241
      9 C         140.3845  144.3712  158.4102 C.ar    1  UNL1        0.0033
     10 C         140.3746  145.6849  157.6863 C.ar    1  UNL1        0.0207
     11 C         139.4746  145.8821  156.5025 C.ar    1  UNL1        0.0994
     12 N         139.4647  147.1958  155.7785 N.ar    1  UNL1       -0.2839
     13 C         140.0848  147.4697  154.4404 C.ar    1  UNL1        0.1826
     14 N         139.8363  148.9093  154.1004 N.ar    1  UNL1       -0.2280
     15 C         139.0626  149.5251  155.2283 C.ar    1  UNL1        0.0786
     16 C         138.5998  150.9499  155.3055 C.3     1  UNL1        0.0538
     17 C         138.8329  148.4661  156.2655 C.ar    1  UNL1        0.0963
     18 C         137.0623  143.7766  154.1843 C.3     1  UNL1        0.2525
     19 O         137.6847  144.9629  154.8591 O.3     1  UNL1       -0.4700
     20 C         138.1509  139.2714  161.1456 C.3     1  UNL1        0.2141
     21 C         138.1759  139.6443  162.5982 C.2     1  UNL1        0.2545
     22 O         137.3755  140.8154  163.0858 O.2     1  UNL1       -0.2724
     23 N         139.0013  138.8460  163.5633 N.am    1  UNL1       -0.2488
     24 C         139.0264  139.2189  165.0160 C.ar    1  UNL1        0.0542
     25 C         138.1677  138.4757  165.9960 C.ar    1  UNL1        0.0149
     26 C         138.1927  138.8485  167.4487 C.ar    1  UNL1        0.0013
     27 C         139.0765  139.9646  167.9215 C.ar    1  UNL1        0.0001
     28 C         139.1015  140.3374  169.3741 C.ar    1  UNL1        0.0000
     29 C         139.9852  141.4534  169.8469 C.ar    1  UNL1        0.0000
     30 C         140.8439  142.1966  168.8669 C.ar    1  UNL1        0.0000
     31 C         140.8188  141.8238  167.4142 C.ar    1  UNL1        0.0000
     32 C         139.9351  140.7078  166.9415 C.ar    1  UNL1        0.0012
     33 C         139.9101  140.3349  165.4888 C.ar    1  UNL1        0.0149
     34 C         139.8017  137.6748  163.0757 C.3     1  UNL1        0.2016
     35 C         141.2939  137.6708  163.2276 C.3     1  UNL1        0.4160
     36 F         142.7862  137.6668  163.3795 F       1  UNL1       -0.1682
     37 F         141.1692  136.7820  164.4295 F       1  UNL1       -0.1682
     38 F         141.4187  138.5595  162.0258 F       1  UNL1       -0.1682
@<TRIPOS>BOND
     1    18    19    1
     2    19     6    1
     3     6     7   ar
     4     7     8   ar
     5     8     1    1
     6     1     2   ar
     7     2     3   ar
     8     3    20    1
     9    20    21    1
    10    21    22    2
    11    21    23   am
    12    23    34    1
    13    34    35    1
    14    35    36    1
    15    35    37    1
    16    35    38    1
    17    23    24    1
    18    24    25   ar
    19    25    26   ar
    20    26    27   ar
    21    27    28   ar
    22    28    29   ar
    23    29    30   ar
    24    30    31   ar
    25    31    32   ar
    26    32    33   ar
    27     3     4   ar
    28     4     5   ar
    29     8     9   ar
    30     9    10   ar
    31    10    11   ar
    32    11    12    1
    33    12    13   ar
    34    13    14   ar
    35    14    15   ar
    36    15    16    1
    37    15    17   ar
    38    11     6   ar
    39    17    12   ar
    40     5     1   ar
    41    33    24   ar
    42    32    27   ar
@<TRIPOS>MOLECULE
*****
 38 42 0 0 0
SMALL
GASTEIGER

@<TRIPOS>ATOM
      1 C         142.2330  141.7088  158.9629 C.ar    1  UNL1        0.1233
      2 C         141.7679  142.0656  160.3436 C.ar    1  UNL1        0.1181
      3 N         142.0162  143.5301  160.5523 N.ar    1  UNL1       -0.2208
      4 N         142.6348  144.0784  159.3006 N.ar    1  UNL1       -0.0633
      5 N         142.7688  142.9528  158.3183 N.ar    1  UNL1       -0.1287
      6 C         143.2150  138.5285  156.8014 C.ar    1  UNL1        0.1547
      7 C         143.2751  139.8903  157.4276 C.ar    1  UNL1        0.0400
      8 C         142.1729  140.3470  158.3367 C.ar    1  UNL1        0.0241
      9 C         141.0106  139.4421  158.6197 C.ar    1  UNL1        0.0033
     10 C         140.9504  138.0804  157.9936 C.ar    1  UNL1        0.0207
     11 C         142.0527  137.6236  157.0844 C.ar    1  UNL1        0.0994
     12 N         141.9926  136.2619  156.4583 N.ar    1  UNL1       -0.2839
     13 C         141.0681  135.8386  155.3554 C.ar    1  UNL1        0.1826
     14 N         141.3506  134.3995  155.0405 N.ar    1  UNL1       -0.2280
     15 C         142.4495  133.9333  155.9488 C.ar    1  UNL1        0.0786
     16 C         143.0469  132.5576  155.9761 C.3     1  UNL1        0.0538
     17 C         142.8463  135.0843  156.8250 C.ar    1  UNL1        0.0963
     18 C         145.0392  139.0653  155.0312 C.3     1  UNL1        0.2525
     19 O         144.3171  138.0718  155.8923 O.3     1  UNL1       -0.4700
     20 C         141.7012  144.3096  161.7946 C.3     1  UNL1        0.2141
     21 C         141.0632  143.6259  162.9674 C.2     1  UNL1        0.2545
     22 O         139.5771  143.6955  163.1587 O.2     1  UNL1       -0.2724
     23 N         141.9113  142.8726  163.9488 N.am    1  UNL1       -0.2488
     24 C         141.2733  142.1888  165.1217 C.ar    1  UNL1        0.0542
     25 C         140.7140  140.8053  164.9701 C.ar    1  UNL1        0.0149
     26 C         140.0760  140.1215  166.1428 C.ar    1  UNL1        0.0013
     27 C         139.9972  140.8213  167.4673 C.ar    1  UNL1        0.0001
     28 C         139.3593  140.1376  168.6400 C.ar    1  UNL1        0.0000
     29 C         139.2805  140.8374  169.9644 C.ar    1  UNL1        0.0000
     30 C         139.8398  142.2210  170.1160 C.ar    1  UNL1        0.0000
     31 C         140.4778  142.9047  168.9433 C.ar    1  UNL1        0.0000
     32 C         140.5565  142.2049  167.6189 C.ar    1  UNL1        0.0012
     33 C         141.1945  142.8887  166.4460 C.ar    1  UNL1        0.0149
     34 C         143.3974  142.8030  163.7575 C.3     1  UNL1        0.2016
     35 C         144.3151  143.3696  164.7999 C.3     1  UNL1        0.4160
     36 F         145.2329  143.9361  165.8423 F       1  UNL1       -0.1682
     37 F         144.9688  142.0283  164.9534 F       1  UNL1       -0.1682
     38 F         143.6615  144.7108  164.6464 F       1  UNL1       -0.1682
@<TRIPOS>BOND
     1    18    19    1
     2    19     6    1
     3     6     7   ar
     4     7     8   ar
     5     8     1    1
     6     1     2   ar
     7     2     3   ar
     8     3    20    1
     9    20    21    1
    10    21    22    2
    11    21    23   am
    12    23    34    1
    13    34    35    1
    14    35    36    1
    15    35    37    1
    16    35    38    1
    17    23    24    1
    18    24    25   ar
    19    25    26   ar
    20    26    27   ar
    21    27    28   ar
    22    28    29   ar
    23    29    30   ar
    24    30    31   ar
    25    31    32   ar
    26    32    33   ar
    27     3     4   ar
    28     4     5   ar
    29     8     9   ar
    30     9    10   ar
    31    10    11   ar
    32    11    12    1
    33    12    13   ar
    34    13    14   ar
    35    14    15   ar
    36    15    16    1
    37    15    17   ar
    38    11     6   ar
    39    17    12   ar
    40     5     1   ar
    41    33    24   ar
    42    32    27   ar
@<TRIPOS>MOLECULE
*****
 38 42 0 0 0
SMALL
GASTEIGER

@<TRIPOS>ATOM
      1 C         142.6774  140.6708  159.6664 C.ar    1  UNL1        0.1233
      2 C         142.4981  140.4321  161.1364 C.ar    1  UNL1        0.1181
      3 N         143.3842  139.2882  161.5317 N.ar    1  UNL1       -0.2208
      4 N         144.1112  138.8200  160.3060 N.ar    1  UNL1       -0.0633
      5 N         143.6744  139.6744  159.1532 N.ar    1  UNL1       -0.1287
      6 C         140.5769  143.9029  158.7224 C.ar    1  UNL1        0.1547
      7 C         141.2724  142.8523  159.5363 C.ar    1  UNL1        0.0400
      8 C         141.9819  141.7214  158.8525 C.ar    1  UNL1        0.0241
      9 C         141.9958  141.6410  157.3547 C.ar    1  UNL1        0.0033
     10 C         141.3003  142.6916  156.5407 C.ar    1  UNL1        0.0207
     11 C         140.5908  143.8225  157.2246 C.ar    1  UNL1        0.0994
     12 N         139.8953  144.8731  156.4107 N.ar    1  UNL1       -0.2839
     13 C         138.5426  144.7441  155.7753 C.ar    1  UNL1        0.1826
     14 N         138.2416  146.0284  155.0612 N.ar    1  UNL1       -0.2280
     15 C         139.4082  146.9511  155.2553 C.ar    1  UNL1        0.0786
     16 C         139.5311  148.3435  154.7108 C.3     1  UNL1        0.0538
     17 C         140.4302  146.2371  156.0893 C.ar    1  UNL1        0.0963
     18 C         140.2343  145.4090  160.8114 C.3     1  UNL1        0.2525
     19 O         139.8674  145.0338  159.4062 O.3     1  UNL1       -0.4700
     20 C         143.5197  138.7135  162.9106 C.3     1  UNL1        0.2141
     21 C         143.1592  139.5426  164.1075 C.2     1  UNL1        0.2545
     22 O         144.2148  140.3436  164.8105 O.2     1  UNL1       -0.2724
     23 N         141.7432  139.5708  164.6014 N.am    1  UNL1       -0.2488
     24 C         141.3826  140.4000  165.7983 C.ar    1  UNL1        0.0542
     25 C         140.9659  141.8301  165.6220 C.ar    1  UNL1        0.0149
     26 C         140.6054  142.6593  166.8188 C.ar    1  UNL1        0.0013
     27 C         140.6616  142.0583  168.1921 C.ar    1  UNL1        0.0001
     28 C         140.3011  142.8875  169.3889 C.ar    1  UNL1        0.0000
     29 C         140.3573  142.2866  170.7621 C.ar    1  UNL1        0.0000
     30 C         140.7740  140.8565  170.9384 C.ar    1  UNL1        0.0000
     31 C         141.1345  140.0273  169.7416 C.ar    1  UNL1        0.0000
     32 C         141.0783  140.6282  168.3684 C.ar    1  UNL1        0.0012
     33 C         141.4388  139.7990  167.1715 C.ar    1  UNL1        0.0149
     34 C         140.6876  138.7698  163.8984 C.3     1  UNL1        0.2016
     35 C         139.7651  137.8886  164.6873 C.3     1  UNL1        0.4160
     36 F         138.8427  137.0073  165.4763 F       1  UNL1       -0.1682
     37 F         140.8667  136.8842  164.8535 F       1  UNL1       -0.1682
     38 F         138.6635  138.8929  164.5212 F       1  UNL1       -0.1682
@<TRIPOS>BOND
     1    18    19    1
     2    19     6    1
     3     6     7   ar
     4     7     8   ar
     5     8     1    1
     6     1     2   ar
     7     2     3   ar
     8     3    20    1
     9    20    21    1
    10    21    22    2
    11    21    23   am
    12    23    34    1
    13    34    35    1
    14    35    36    1
    15    35    37    1
    16    35    38    1
    17    23    24    1
    18    24    25   ar
    19    25    26   ar
    20    26    27   ar
    21    27    28   ar
    22    28    29   ar
    23    29    30   ar
    24    30    31   ar
    25    31    32   ar
    26    32    33   ar
    27     3     4   ar
    28     4     5   ar
    29     8     9   ar
    30     9    10   ar
    31    10    11   ar
    32    11    12    1
    33    12    13   ar
    34    13    14   ar
    35    14    15   ar
    36    15    16    1
    37    15    17   ar
    38    11     6   ar
    39    17    12   ar
    40     5     1   ar
    41    33    24   ar
    42    32    27   ar
@<TRIPOS>MOLECULE
*****
 38 42 0 0 0
SMALL
GASTEIGER

@<TRIPOS>ATOM
      1 C         143.0328  137.2410  157.0620 C.ar    1  UNL1        0.1233
      2 C         142.6074  137.7786  158.3962 C.ar    1  UNL1        0.1181
      3 N         143.1051  139.1892  158.5076 N.ar    1  UNL1       -0.2208
      4 N         143.8381  139.5234  157.2422 N.ar    1  UNL1       -0.0633
      5 N         143.7934  138.3194  156.3488 N.ar    1  UNL1       -0.1287
      6 C         143.1417  133.2995  156.6115 C.ar    1  UNL1        0.1547
      7 C         143.4269  134.6742  157.1398 C.ar    1  UNL1        0.0400
      8 C         142.7476  135.8663  156.5338 C.ar    1  UNL1        0.0241
      9 C         141.7832  135.6839  155.3996 C.ar    1  UNL1        0.0033
     10 C         141.4980  134.3093  154.8712 C.ar    1  UNL1        0.0207
     11 C         142.1773  133.1171  155.4773 C.ar    1  UNL1        0.0994
     12 N         141.8921  131.7424  154.9490 N.ar    1  UNL1       -0.2839
     13 C         142.8452  130.8797  154.1760 C.ar    1  UNL1        0.1826
     14 N         142.1460  129.5933  153.8503 N.ar    1  UNL1       -0.2280
     15 C         140.7608  129.6609  154.4220 C.ar    1  UNL1        0.0786
     16 C         139.7160  128.5885  154.3307 C.3     1  UNL1        0.0538
     17 C         140.6040  130.9892  155.1011 C.ar    1  UNL1        0.0963
     18 C         145.1319  132.2717  157.9279 C.3     1  UNL1        0.2525
     19 O         143.8210  132.1073  157.2175 O.3     1  UNL1       -0.4700
     20 C         142.9050  140.1049  159.6787 C.3     1  UNL1        0.2141
     21 C         141.8531  139.7949  160.7021 C.2     1  UNL1        0.2545
     22 O         140.4259  140.1829  160.4520 O.2     1  UNL1       -0.2724
     23 N         142.2284  139.0967  161.9755 N.am    1  UNL1       -0.2488
     24 C         141.1765  138.7866  162.9989 C.ar    1  UNL1        0.0542
     25 C         140.2054  137.6684  162.7612 C.ar    1  UNL1        0.0149
     26 C         139.1535  137.3582  163.7846 C.ar    1  UNL1        0.0013
     27 C         139.0726  138.1664  165.0457 C.ar    1  UNL1        0.0001
     28 C         138.0207  137.8562  166.0691 C.ar    1  UNL1        0.0000
     29 C         137.9399  138.6643  167.3301 C.ar    1  UNL1        0.0000
     30 C         138.9110  139.7826  167.5679 C.ar    1  UNL1        0.0000
     31 C         139.9629  140.0927  166.5445 C.ar    1  UNL1        0.0000
     32 C         140.0437  139.2846  165.2835 C.ar    1  UNL1        0.0012
     33 C         141.0956  139.5947  164.2600 C.ar    1  UNL1        0.0149
     34 C         143.6556  138.7087  162.2256 C.3     1  UNL1        0.2016
     35 C         144.4862  139.4916  163.1988 C.3     1  UNL1        0.4160
     36 F         145.3168  140.2745  164.1719 F       1  UNL1       -0.1682
     37 F         144.8626  140.4490  162.1072 F       1  UNL1       -0.1682
     38 F         144.1098  138.5341  164.2903 F       1  UNL1       -0.1682
@<TRIPOS>BOND
     1    18    19    1
     2    19     6    1
     3     6     7   ar
     4     7     8   ar
     5     8     1    1
     6     1     2   ar
     7     2     3   ar
     8     3    20    1
     9    20    21    1
    10    21    22    2
    11    21    23   am
    12    23    34    1
    13    34    35    1
    14    35    36    1
    15    35    37    1
    16    35    38    1
    17    23    24    1
    18    24    25   ar
    19    25    26   ar
    20    26    27   ar
    21    27    28   ar
    22    28    29   ar
    23    29    30   ar
    24    30    31   ar
    25    31    32   ar
    26    32    33   ar
    27     3     4   ar
    28     4     5   ar
    29     8     9   ar
    30     9    10   ar
    31    10    11   ar
    32    11    12    1
    33    12    13   ar
    34    13    14   ar
    35    14    15   ar
    36    15    16    1
    37    15    17   ar
    38    11     6   ar
    39    17    12   ar
    40     5     1   ar
    41    33    24   ar
    42    32    27   ar
@<TRIPOS>MOLECULE
*****
 38 42 0 0 0
SMALL
GASTEIGER

@<TRIPOS>ATOM
      1 C         140.6374  140.3372  159.0853 C.ar    1  UNL1        0.1233
      2 C         141.5502  140.7600  160.1980 C.ar    1  UNL1        0.1181
      3 N         140.9601  141.9783  160.8440 N.ar    1  UNL1       -0.2208
      4 N         139.6826  142.3086  160.1306 N.ar    1  UNL1       -0.0633
      5 N         139.4831  141.2943  159.0436 N.ar    1  UNL1       -0.1287
      6 C         139.8819  137.3964  156.5297 C.ar    1  UNL1        0.1547
      7 C         139.6765  138.5702  157.4408 C.ar    1  UNL1        0.0400
      8 C         140.8428  139.1635  158.1741 C.ar    1  UNL1        0.0241
      9 C         142.2144  138.5831  157.9964 C.ar    1  UNL1        0.0033
     10 C         142.4199  137.4094  157.0853 C.ar    1  UNL1        0.0207
     11 C         141.2535  136.8160  156.3519 C.ar    1  UNL1        0.0994
     12 N         141.4589  135.6423  155.4408 N.ar    1  UNL1       -0.2839
     13 C         141.2532  135.6329  153.9550 C.ar    1  UNL1        0.1826
     14 N         141.5732  134.2567  153.4514 N.ar    1  UNL1       -0.2280
     15 C         141.9767  133.4155  154.6260 C.ar    1  UNL1        0.0786
     16 C         142.3800  131.9715  154.5793 C.3     1  UNL1        0.0538
     17 C         141.9060  134.2719  155.8555 C.ar    1  UNL1        0.0963
     18 C         138.1310  137.5175  154.6142 C.3     1  UNL1        0.2525
     19 O         138.7156  136.8031  155.7964 O.3     1  UNL1       -0.4700
     20 C         141.5448  142.7338  162.0005 C.3     1  UNL1        0.2141
     21 C         141.4576  142.1682  163.3870 C.2     1  UNL1        0.2545
     22 O         142.5576  141.2929  163.9104 O.2     1  UNL1       -0.2724
     23 N         140.2705  142.4777  164.2499 N.am    1  UNL1       -0.2488
     24 C         140.1832  141.9120  165.6365 C.ar    1  UNL1        0.0542
     25 C         139.4545  140.6230  165.8761 C.ar    1  UNL1        0.0149
     26 C         139.3672  140.0573  167.2625 C.ar    1  UNL1        0.0013
     27 C         140.0087  140.7805  168.4095 C.ar    1  UNL1        0.0001
     28 C         139.9215  140.2148  169.7959 C.ar    1  UNL1        0.0000
     29 C         140.5630  140.9381  170.9428 C.ar    1  UNL1        0.0000
     30 C         141.2917  142.2271  170.7032 C.ar    1  UNL1        0.0000
     31 C         141.3790  142.7928  169.3167 C.ar    1  UNL1        0.0000
     32 C         140.7375  142.0695  168.1699 C.ar    1  UNL1        0.0012
     33 C         140.8247  142.6353  166.7833 C.ar    1  UNL1        0.0149
     34 C         139.1705  143.3529  163.7265 C.3     1  UNL1        0.2016
     35 C         138.2479  144.0502  164.6817 C.3     1  UNL1        0.4160
     36 F         137.3253  144.7474  165.6370 F       1  UNL1       -0.1682
     37 F         137.2678  142.9214  164.5590 F       1  UNL1       -0.1682
     38 F         139.2281  145.1789  164.8044 F       1  UNL1       -0.1682
@<TRIPOS>BOND
     1    18    19    1
     2    19     6    1
     3     6     7   ar
     4     7     8   ar
     5     8     1    1
     6     1     2   ar
     7     2     3   ar
     8     3    20    1
     9    20    21    1
    10    21    22    2
    11    21    23   am
    12    23    34    1
    13    34    35    1
    14    35    36    1
    15    35    37    1
    16    35    38    1
    17    23    24    1
    18    24    25   ar
    19    25    26   ar
    20    26    27   ar
    21    27    28   ar
    22    28    29   ar
    23    29    30   ar
    24    30    31   ar
    25    31    32   ar
    26    32    33   ar
    27     3     4   ar
    28     4     5   ar
    29     8     9   ar
    30     9    10   ar
    31    10    11   ar
    32    11    12    1
    33    12    13   ar
    34    13    14   ar
    35    14    15   ar
    36    15    16    1
    37    15    17   ar
    38    11     6   ar
    39    17    12   ar
    40     5     1   ar
    41    33    24   ar
    42    32    27   ar
@<TRIPOS>MOLECULE
*****
 38 42 0 0 0
SMALL
GASTEIGER

@<TRIPOS>ATOM
      1 C         143.0549  141.2534  159.1028 C.ar    1  UNL1        0.1233
      2 C         142.8419  141.5682  160.5538 C.ar    1  UNL1        0.1181
      3 N         143.0012  143.0486  160.7352 N.ar    1  UNL1       -0.2208
      4 N         143.3128  143.6488  159.3962 N.ar    1  UNL1       -0.0633
      5 N         143.3460  142.5393  158.3873 N.ar    1  UNL1       -0.1287
      6 C         143.1600  138.3688  156.3791 C.ar    1  UNL1        0.1547
      7 C         143.2263  139.7305  157.0049 C.ar    1  UNL1        0.0400
      8 C         142.9886  139.8917  158.4771 C.ar    1  UNL1        0.0241
      9 C         142.6845  138.6914  159.3236 C.ar    1  UNL1        0.0033
     10 C         142.6181  137.3297  158.6979 C.ar    1  UNL1        0.0207
     11 C         142.8559  137.1685  157.2256 C.ar    1  UNL1        0.0994
     12 N         142.7896  135.8068  156.5999 N.ar    1  UNL1       -0.2839
     13 C         141.6595  135.2714  155.7714 C.ar    1  UNL1        0.1826
     14 N         142.0131  133.8752  155.3523 N.ar    1  UNL1       -0.2280
     15 C         143.3617  133.5479  155.9217 C.ar    1  UNL1        0.0786
     16 C         144.1006  132.2538  155.7501 C.3     1  UNL1        0.0538
     17 C         143.8415  134.7416  156.6928 C.ar    1  UNL1        0.0963
     18 C         142.2827  138.4579  153.9353 C.3     1  UNL1        0.2525
     19 O         143.3978  138.2076  154.9069 O.3     1  UNL1       -0.4700
     20 C         142.8718  143.7975  162.0285 C.3     1  UNL1        0.2141
     21 C         142.4742  143.0712  163.2792 C.2     1  UNL1        0.2545
     22 O         143.5203  142.4118  164.1283 O.2     1  UNL1       -0.2724
     23 N         141.0306  143.0042  163.6808 N.am    1  UNL1       -0.2488
     24 C         140.6330  142.2779  164.9316 C.ar    1  UNL1        0.0542
     25 C         140.1309  140.8666  164.8518 C.ar    1  UNL1        0.0149
     26 C         139.7333  140.1402  166.1025 C.ar    1  UNL1        0.0013
     27 C         139.8377  140.8251  167.4330 C.ar    1  UNL1        0.0001
     28 C         139.4401  140.0988  168.6837 C.ar    1  UNL1        0.0000
     29 C         139.5445  140.7836  170.0141 C.ar    1  UNL1        0.0000
     30 C         140.0465  142.1949  170.0938 C.ar    1  UNL1        0.0000
     31 C         140.4441  142.9212  168.8431 C.ar    1  UNL1        0.0000
     32 C         140.3397  142.2364  167.5127 C.ar    1  UNL1        0.0012
     33 C         140.7374  142.9627  166.2620 C.ar    1  UNL1        0.0149
     34 C         139.9845  143.6636  162.8317 C.3     1  UNL1        0.2016
     35 C         138.6669  144.0538  163.4330 C.3     1  UNL1        0.4160
     36 F         137.3493  144.4439  164.0344 F       1  UNL1       -0.1682
     37 F         139.3223  145.2190  164.1131 F       1  UNL1       -0.1682
     38 F         138.0115  142.8885  162.7530 F       1  UNL1       -0.1682
@<TRIPOS>BOND
     1    18    19    1
     2    19     6    1
     3     6     7   ar
     4     7     8   ar
     5     8     1    1
     6     1     2   ar
     7     2     3   ar
     8     3    20    1
     9    20    21    1
    10    21    22    2
    11    21    23   am
    12    23    34    1
    13    34    35    1
    14    35    36    1
    15    35    37    1
    16    35    38    1
    17    23    24    1
    18    24    25   ar
    19    25    26   ar
    20    26    27   ar
    21    27    28   ar
    22    28    29   ar
    23    29    30   ar
    24    30    31   ar
    25    31    32   ar
    26    32    33   ar
    27     3     4   ar
    28     4     5   ar
    29     8     9   ar
    30     9    10   ar
    31    10    11   ar
    32    11    12    1
    33    12    13   ar
    34    13    14   ar
    35    14    15   ar
    36    15    16    1
    37    15    17   ar
    38    11     6   ar
    39    17    12   ar
    40     5     1   ar
    41    33    24   ar
    42    32    27   ar
@<TRIPOS>MOLECULE
*****
 38 42 0 0 0
SMALL
GASTEIGER

@<TRIPOS>ATOM
      1 C         141.4714  138.8161  158.8600 C.ar    1  UNL1        0.1233
      2 C         140.3508  139.0307  159.8337 C.ar    1  UNL1        0.1181
      3 N         140.7413  140.1523  160.7499 N.ar    1  UNL1       -0.2208
      4 N         142.1033  140.6309  160.3425 N.ar    1  UNL1       -0.0633
      5 N         142.5546  139.8050  159.1744 N.ar    1  UNL1       -0.1287
      6 C         142.7099  135.8445  156.5392 C.ar    1  UNL1        0.1547
      7 C         142.6779  136.8683  157.6350 C.ar    1  UNL1        0.0400
      8 C         141.5033  137.7922  157.7642 C.ar    1  UNL1        0.0241
      9 C         140.3607  137.6923  156.7977 C.ar    1  UNL1        0.0033
     10 C         140.3925  136.6685  155.7019 C.ar    1  UNL1        0.0207
     11 C         141.5672  135.7445  155.5727 C.ar    1  UNL1        0.0994
     12 N         141.5991  134.7207  154.4769 N.ar    1  UNL1       -0.2839
     13 C         141.8508  134.9925  153.0233 C.ar    1  UNL1        0.1826
     14 N         141.7922  133.6851  152.2904 N.ar    1  UNL1       -0.2280
     15 C         141.5043  132.6053  153.2909 C.ar    1  UNL1        0.0786
     16 C         141.3609  131.1422  152.9925 C.3     1  UNL1        0.0538
     17 C         141.3850  133.2453  154.6423 C.ar    1  UNL1        0.0963
     18 C         144.0147  133.7404  157.3266 C.3     1  UNL1        0.2525
     19 O         143.8845  134.9206  156.4100 O.3     1  UNL1       -0.4700
     20 C         139.9149  140.6994  161.8759 C.3     1  UNL1        0.2141
     21 C         140.5548  140.9994  163.1990 C.2     1  UNL1        0.2545
     22 O         141.5286  142.1337  163.3211 O.2     1  UNL1       -0.2724
     23 N         140.2210  140.1649  164.3999 N.am    1  UNL1       -0.2488
     24 C         140.8609  140.4649  165.7230 C.ar    1  UNL1        0.0542
     25 C         141.9714  139.5952  166.2333 C.ar    1  UNL1        0.0149
     26 C         142.6114  139.8951  167.5563 C.ar    1  UNL1        0.0013
     27 C         142.1408  141.0647  168.3692 C.ar    1  UNL1        0.0001
     28 C         142.7807  141.3646  169.6922 C.ar    1  UNL1        0.0000
     29 C         142.3102  142.5341  170.5050 C.ar    1  UNL1        0.0000
     30 C         141.1997  143.4038  169.9947 C.ar    1  UNL1        0.0000
     31 C         140.5597  143.1039  168.6716 C.ar    1  UNL1        0.0000
     32 C         141.0303  141.9344  167.8589 C.ar    1  UNL1        0.0012
     33 C         140.3903  141.6344  166.5358 C.ar    1  UNL1        0.0149
     34 C         139.2472  139.0306  164.2778 C.3     1  UNL1        0.2016
     35 C         138.4600  138.5858  165.4746 C.3     1  UNL1        0.4160
     36 F         137.6727  138.1410  166.6714 F       1  UNL1       -0.1682
     37 F         139.1910  137.2760  165.4686 F       1  UNL1       -0.1682
     38 F         137.7290  139.8955  165.4805 F       1  UNL1       -0.1682
@<TRIPOS>BOND
     1    18    19    1
     2    19     6    1
     3     6     7   ar
     4     7     8   ar
     5     8     1    1
     6     1     2   ar
     7     2     3   ar
     8     3    20    1
     9    20    21    1
    10    21    22    2
    11    21    23   am
    12    23    34    1
    13    34    35    1
    14    35    36    1
    15    35    37    1
    16    35    38    1
    17    23    24    1
    18    24    25   ar
    19    25    26   ar
    20    26    27   ar
    21    27    28   ar
    22    28    29   ar
    23    29    30   ar
    24    30    31   ar
    25    31    32   ar
    26    32    33   ar
    27     3     4   ar
    28     4     5   ar
    29     8     9   ar
    30     9    10   ar
    31    10    11   ar
    32    11    12    1
    33    12    13   ar
    34    13    14   ar
    35    14    15   ar
    36    15    16    1
    37    15    17   ar
    38    11     6   ar
    39    17    12   ar
    40     5     1   ar
    41    33    24   ar
    42    32    27   ar
@<TRIPOS>MOLECULE
*****
 38 42 0 0 0
SMALL
GASTEIGER

@<TRIPOS>ATOM
      1 C         139.8166  141.1388  158.9296 C.ar    1  UNL1        0.1233
      2 C         139.5512  141.2495  160.4017 C.ar    1  UNL1        0.1181
      3 N         138.9415  142.5949  160.6629 N.ar    1  UNL1       -0.2208
      4 N         138.8301  143.3157  159.3521 N.ar    1  UNL1       -0.0633
      5 N         139.3709  142.4158  158.2808 N.ar    1  UNL1       -0.1287
      6 C         142.4932  138.7619  157.2160 C.ar    1  UNL1        0.1547
      7 C         141.8884  139.9424  157.9165 C.ar    1  UNL1        0.0400
      8 C         140.4214  139.9583  158.2291 C.ar    1  UNL1        0.0241
      9 C         139.5593  138.7938  157.8412 C.ar    1  UNL1        0.0033
     10 C         140.1640  137.6133  157.1407 C.ar    1  UNL1        0.0207
     11 C         141.6311  137.5974  156.8281 C.ar    1  UNL1        0.0994
     12 N         142.2359  136.4170  156.1276 N.ar    1  UNL1       -0.2839
     13 C         142.3121  136.2167  154.6429 C.ar    1  UNL1        0.1826
     14 N         142.9940  134.9055  154.3865 N.ar    1  UNL1       -0.2280
     15 C         143.3393  134.2955  155.7127 C.ar    1  UNL1        0.0786
     16 C         144.0316  132.9818  155.9254 C.3     1  UNL1        0.0538
     17 C         142.8708  135.2296  156.7887 C.ar    1  UNL1        0.0963
     18 C         144.4543  139.2896  155.5956 C.3     1  UNL1        0.2525
     19 O         143.9602  138.7460  156.9034 O.3     1  UNL1       -0.4700
     20 C         138.5176  143.1263  162.0001 C.3     1  UNL1        0.2141
     21 C         139.4919  143.1515  163.1403 C.2     1  UNL1        0.2545
     22 O         140.5703  144.1933  163.1825 O.2     1  UNL1       -0.2724
     23 N         139.3879  142.1349  164.2382 N.am    1  UNL1       -0.2488
     24 C         140.3622  142.1600  165.3785 C.ar    1  UNL1        0.0542
     25 C         141.7486  141.6186  165.1923 C.ar    1  UNL1        0.0149
     26 C         142.7230  141.6437  166.3325 C.ar    1  UNL1        0.0013
     27 C         142.3108  142.2102  167.6589 C.ar    1  UNL1        0.0001
     28 C         143.2851  142.2353  168.7991 C.ar    1  UNL1        0.0000
     29 C         142.8730  142.8017  170.1254 C.ar    1  UNL1        0.0000
     30 C         141.4865  143.3431  170.3116 C.ar    1  UNL1        0.0000
     31 C         140.5122  143.3180  169.1714 C.ar    1  UNL1        0.0000
     32 C         140.9244  142.7516  167.8451 C.ar    1  UNL1        0.0012
     33 C         139.9500  142.7264  166.7048 C.ar    1  UNL1        0.0149
     34 C         138.3095  141.0931  164.1960 C.3     1  UNL1        0.2016
     35 C         138.6374  139.6614  164.5004 C.3     1  UNL1        0.4160
     36 F         138.9654  138.2297  164.8047 F       1  UNL1       -0.1682
     37 F         137.7294  139.7070  165.6934 F       1  UNL1       -0.1682
     38 F         139.5455  139.6158  163.3074 F       1  UNL1       -0.1682
@<TRIPOS>BOND
     1    18    19    1
     2    19     6    1
     3     6     7   ar
     4     7     8   ar
     5     8     1    1
     6     1     2   ar
     7     2     3   ar
     8     3    20    1
     9    20    21    1
    10    21    22    2
    11    21    23   am
    12    23    34    1
    13    34    35    1
    14    35    36    1
    15    35    37    1
    16    35    38    1
    17    23    24    1
    18    24    25   ar
    19    25    26   ar
    20    26    27   ar
    21    27    28   ar
    22    28    29   ar
    23    29    30   ar
    24    30    31   ar
    25    31    32   ar
    26    32    33   ar
    27     3     4   ar
    28     4     5   ar
    29     8     9   ar
    30     9    10   ar
    31    10    11   ar
    32    11    12    1
    33    12    13   ar
    34    13    14   ar
    35    14    15   ar
    36    15    16    1
    37    15    17   ar
    38    11     6   ar
    39    17    12   ar
    40     5     1   ar
    41    33    24   ar
    42    32    27   ar
@<TRIPOS>MOLECULE
*****
 38 42 0 0 0
SMALL
GASTEIGER

@<TRIPOS>ATOM
      1 C         143.7244  141.9105  159.2007 C.ar    1  UNL1        0.1233
      2 C         143.4241  142.9519  160.2376 C.ar    1  UNL1        0.1181
      3 N         142.2363  142.4896  161.0284 N.ar    1  UNL1       -0.2208
      4 N         141.8025  141.1625  160.4803 N.ar    1  UNL1       -0.0633
      5 N         142.7221  140.8045  159.3506 N.ar    1  UNL1       -0.1287
      6 C         145.8935  141.1398  155.9678 C.ar    1  UNL1        0.1547
      7 C         144.7855  141.0849  156.9775 C.ar    1  UNL1        0.0400
      8 C         144.8324  141.9653  158.1910 C.ar    1  UNL1        0.0241
      9 C         145.9872  142.9005  158.3950 C.ar    1  UNL1        0.0033
     10 C         147.0952  142.9554  157.3854 C.ar    1  UNL1        0.0207
     11 C         147.0483  142.0749  156.1718 C.ar    1  UNL1        0.0994
     12 N         148.1563  142.1298  155.1621 N.ar    1  UNL1       -0.2839
     13 C         148.0697  142.7294  153.7898 C.ar    1  UNL1        0.1826
     14 N         149.4052  142.5648  153.1271 N.ar    1  UNL1       -0.2280
     15 C         150.3172  141.8636  154.0897 C.ar    1  UNL1        0.0786
     16 C         151.7496  141.4957  153.8386 C.3     1  UNL1        0.0538
     17 C         149.5452  141.5947  155.3474 C.ar    1  UNL1        0.0963
     18 C         144.9259  139.0756  154.7216 C.3     1  UNL1        0.2525
     19 O         145.8465  140.2594  154.7543 O.3     1  UNL1       -0.4700
     20 C         141.5949  143.2254  162.1675 C.3     1  UNL1        0.2141
     21 C         141.5415  142.5993  163.5295 C.2     1  UNL1        0.2545
     22 O         142.7666  141.9549  164.1073 O.2     1  UNL1       -0.2724
     23 N         140.2630  142.6175  164.3137 N.am    1  UNL1       -0.2488
     24 C         140.2095  141.9914  165.6758 C.ar    1  UNL1        0.0542
     25 C         139.6258  140.6205  165.8486 C.ar    1  UNL1        0.0149
     26 C         139.5723  139.9944  167.2106 C.ar    1  UNL1        0.0013
     27 C         140.1026  140.7392  168.3998 C.ar    1  UNL1        0.0001
     28 C         140.0491  140.1130  169.7618 C.ar    1  UNL1        0.0000
     29 C         140.5793  140.8578  170.9509 C.ar    1  UNL1        0.0000
     30 C         141.1630  142.2288  170.7781 C.ar    1  UNL1        0.0000
     31 C         141.2165  142.8549  169.4161 C.ar    1  UNL1        0.0000
     32 C         140.6863  142.1101  168.2270 C.ar    1  UNL1        0.0012
     33 C         140.7397  142.7362  166.8649 C.ar    1  UNL1        0.0149
     34 C         139.0378  143.2619  163.7358 C.3     1  UNL1        0.2016
     35 C         138.1002  144.0229  164.6255 C.3     1  UNL1        0.4160
     36 F         137.1625  144.7839  165.5152 F       1  UNL1       -0.1682
     37 F         139.0740  145.1626  164.6769 F       1  UNL1       -0.1682
     38 F         137.1264  142.8831  164.5741 F       1  UNL1       -0.1682
@<TRIPOS>BOND
     1    18    19    1
     2    19     6    1
     3     6     7   ar
     4     7     8   ar
     5     8     1    1
     6     1     2   ar
     7     2     3   ar
     8     3    20    1
     9    20    21    1
    10    21    22    2
    11    21    23   am
    12    23    34    1
    13    34    35    1
    14    35    36    1
    15    35    37    1
    16    35    38    1
    17    23    24    1
    18    24    25   ar
    19    25    26   ar
    20    26    27   ar
    21    27    28   ar
    22    28    29   ar
    23    29    30   ar
    24    30    31   ar
    25    31    32   ar
    26    32    33   ar
    27     3     4   ar
    28     4     5   ar
    29     8     9   ar
    30     9    10   ar
    31    10    11   ar
    32    11    12    1
    33    12    13   ar
    34    13    14   ar
    35    14    15   ar
    36    15    16    1
    37    15    17   ar
    38    11     6   ar
    39    17    12   ar
    40     5     1   ar
    41    33    24   ar
    42    32    27   ar
