@<TRIPOS>MOLECULE
*****
 30 31 0 0 0
SMALL
GASTEIGER

@<TRIPOS>ATOM
      1 C         139.8761  139.9550  167.7542 C.ar    1  UNL1        0.0764
      2 C         140.5520  140.7146  168.8571 C.ar    1  UNL1        0.0522
      3 C         139.8999  140.8207  170.2037 C.ar    1  UNL1        0.1516
      4 N         138.5718  140.1673  170.4475 N.ar    1  UNL1       -0.1329
      5 N         137.8959  139.4078  169.3447 N.ar    1  UNL1       -0.1409
      6 C         138.5481  139.3017  167.9980 C.ar    1  UNL1        0.1691
      7 C         137.8722  138.5422  166.8951 C.2     1  UNL1        0.2635
      8 N         137.1518  137.2619  167.1982 N.am    1  UNL1       -0.3240
      9 O         137.9167  139.0630  165.4892 O.2     1  UNL1       -0.2686
     10 H         137.1226  136.9201  168.1210 H       1  UNL1        0.1453
     11 H         136.7082  136.7634  166.4744 H       1  UNL1        0.1453
     12 N         140.5283  139.8489  166.4076 N.pl3   1  UNL1       -0.2965
     13 H         140.8463  138.9759  166.0821 H       1  UNL1        0.1537
     14 C         141.1989  144.7450  163.0049 C.3     1  UNL1        0.0323
     15 C         141.0312  143.5210  163.8555 C.ar    1  UNL1       -0.0082
     16 C         142.1446  142.5211  163.9587 C.ar    1  UNL1       -0.0002
     17 C         141.9769  141.2971  164.8094 C.ar    1  UNL1        0.0341
     18 C         140.6959  141.0730  165.5569 C.ar    1  UNL1        0.1318
     19 N         139.5826  142.0728  165.4537 N.ar    1  UNL1       -0.2352
     20 C         139.7503  143.2969  164.6030 C.ar    1  UNL1        0.0560
     21 C         138.6368  144.2968  164.4999 C.3     1  UNL1        0.0400
     22 C         137.8403  144.4043  163.2334 C.3     1  UNL1        0.0063
     23 C         138.3200  145.1891  165.6632 C.3     1  UNL1        0.0063
     24 N         140.5758  141.5802  171.3067 N.pl3   1  UNL1       -0.3155
     25 H         140.0545  141.8902  172.0822 H       1  UNL1        0.1483
     26 C         142.0459  141.8673  171.2280 C.3     1  UNL1        0.1052
     27 C         142.5323  143.1051  170.5342 C.3     1  UNL1        0.0866
     28 N         143.4976  144.0220  171.2252 N.3     1  UNL1       -0.3197
     29 H         143.0437  144.4468  172.0338 H       1  UNL1        0.1189
     30 H         143.7942  144.7531  170.5787 H       1  UNL1        0.1189
@<TRIPOS>BOND
     1    14    15    1
     2    15    16   ar
     3    16    17   ar
     4    17    18   ar
     5    18    12    1
     6    12     1    1
     7     1     2   ar
     8     2     3   ar
     9     3    24    1
    10    24    26    1
    11    26    27    1
    12    27    28    1
    13     3     4   ar
    14     4     5   ar
    15     5     6   ar
    16     6     7    1
    17     7     8   am
    18     7     9    2
    19    18    19   ar
    20    19    20   ar
    21    20    21    1
    22    21    22    1
    23    21    23    1
    24    20    15   ar
    25     6     1   ar
    26    12    13    1
    27    24    25    1
    28    28    29    1
    29    28    30    1
    30     8    10    1
    31     8    11    1
@<TRIPOS>MOLECULE
*****
 30 31 0 0 0
SMALL
GASTEIGER

@<TRIPOS>ATOM
      1 C         142.3678  142.3829  163.8475 C.ar    1  UNL1        0.0764
      2 C         141.4270  143.5457  163.7330 C.ar    1  UNL1        0.0522
      3 C         141.9204  144.8604  163.2057 C.ar    1  UNL1        0.1516
      4 N         143.3545  145.0125  162.7930 N.ar    1  UNL1       -0.1329
      5 N         144.2952  143.8498  162.9075 N.ar    1  UNL1       -0.1409
      6 C         143.8018  142.5350  163.4348 C.ar    1  UNL1        0.1691
      7 C         144.7425  141.3723  163.5493 C.2     1  UNL1        0.2635
      8 N         146.1884  141.6064  163.8728 N.am    1  UNL1       -0.3240
      9 O         144.2374  139.9755  163.3404 O.2     1  UNL1       -0.2686
     10 H         146.5200  142.5232  164.0099 H       1  UNL1        0.1453
     11 H         146.8058  140.8433  163.9480 H       1  UNL1        0.1453
     12 N         141.8744  141.0682  164.3748 N.pl3   1  UNL1       -0.2965
     13 H         141.9708  140.2527  163.8317 H       1  UNL1        0.1537
     14 C         139.3136  140.7793  169.7931 C.3     1  UNL1        0.0323
     15 C         139.9538  140.8515  168.4385 C.ar    1  UNL1       -0.0082
     16 C         139.5091  139.9223  167.3483 C.ar    1  UNL1       -0.0002
     17 C         140.1493  139.9945  165.9937 C.ar    1  UNL1        0.0341
     18 C         141.2342  140.9960  165.7294 C.ar    1  UNL1        0.1318
     19 N         141.6789  141.9252  166.8196 N.ar    1  UNL1       -0.2352
     20 C         141.0387  141.8530  168.1742 C.ar    1  UNL1        0.0560
     21 C         141.4835  142.7824  169.2644 C.3     1  UNL1        0.0400
     22 C         142.8360  142.6117  169.8901 C.3     1  UNL1        0.0063
     23 C         140.5756  143.8824  169.7290 C.3     1  UNL1        0.0063
     24 N         140.9797  146.0232  163.0912 N.pl3   1  UNL1       -0.3155
     25 H         141.0349  146.7663  163.7346 H       1  UNL1        0.1483
     26 C         139.9549  146.0538  161.9962 C.3     1  UNL1        0.1052
     27 C         140.2604  145.4328  160.6655 C.3     1  UNL1        0.0866
     28 N         141.6294  145.5737  160.0687 N.3     1  UNL1       -0.3197
     29 H         141.8031  146.5533  159.8439 H       1  UNL1        0.1189
     30 H         141.6887  145.0139  159.2181 H       1  UNL1        0.1189
@<TRIPOS>BOND
     1    14    15    1
     2    15    16   ar
     3    16    17   ar
     4    17    18   ar
     5    18    12    1
     6    12     1    1
     7     1     2   ar
     8     2     3   ar
     9     3    24    1
    10    24    26    1
    11    26    27    1
    12    27    28    1
    13     3     4   ar
    14     4     5   ar
    15     5     6   ar
    16     6     7    1
    17     7     8   am
    18     7     9    2
    19    18    19   ar
    20    19    20   ar
    21    20    21    1
    22    21    22    1
    23    21    23    1
    24    20    15   ar
    25     6     1   ar
    26    12    13    1
    27    24    25    1
    28    28    29    1
    29    28    30    1
    30     8    10    1
    31     8    11    1
@<TRIPOS>MOLECULE
*****
 30 31 0 0 0
SMALL
GASTEIGER

@<TRIPOS>ATOM
      1 C         137.9369  140.5805  163.7863 C.ar    1  UNL1        0.0764
      2 C         137.7893  142.0730  163.8168 C.ar    1  UNL1        0.0522
      3 C         137.7704  142.8512  162.5346 C.ar    1  UNL1        0.1516
      4 N         137.8990  142.1370  161.2219 N.ar    1  UNL1       -0.1329
      5 N         138.0466  140.6446  161.1913 N.ar    1  UNL1       -0.1409
      6 C         138.0656  139.8663  162.4735 C.ar    1  UNL1        0.1691
      7 C         138.2132  138.3739  162.4429 C.2     1  UNL1        0.2635
      8 N         137.3231  137.5502  161.5602 N.am    1  UNL1       -0.3240
      9 O         139.2509  137.7053  163.2950 O.2     1  UNL1       -0.2686
     10 H         136.6420  137.9890  161.0009 H       1  UNL1        0.1453
     11 H         137.4200  136.5707  161.5401 H       1  UNL1        0.1453
     12 N         137.9558  139.8023  165.0684 N.pl3   1  UNL1       -0.2965
     13 H         137.1873  139.2377  165.3130 H       1  UNL1        0.1537
     14 C         142.7153  140.1306  168.7070 C.3     1  UNL1        0.0323
     15 C         141.5255  140.0485  167.7974 C.ar    1  UNL1       -0.0082
     16 C         140.1496  139.8937  168.3743 C.ar    1  UNL1       -0.0002
     17 C         138.9597  139.8116  167.4647 C.ar    1  UNL1        0.0341
     18 C         139.1457  139.8844  165.9781 C.ar    1  UNL1        0.1318
     19 N         140.5216  140.0392  165.4011 N.ar    1  UNL1       -0.2352
     20 C         141.7115  140.1213  166.3108 C.ar    1  UNL1        0.0560
     21 C         143.0874  140.2761  165.7337 C.3     1  UNL1        0.0400
     22 C         143.6487  141.6456  165.4900 C.3     1  UNL1        0.0063
     23 C         143.9020  139.0614  165.4005 C.3     1  UNL1        0.0063
     24 N         137.6227  144.3436  162.5652 N.pl3   1  UNL1       -0.3155
     25 H         136.8029  144.7644  162.2188 H       1  UNL1        0.1483
     26 C         138.7244  145.1949  163.1235 C.3     1  UNL1        0.1052
     27 C         139.9254  145.5133  162.2832 C.3     1  UNL1        0.0866
     28 N         141.2144  145.9127  162.9382 N.3     1  UNL1       -0.3197
     29 H         141.0930  146.8093  163.4090 H       1  UNL1        0.1189
     30 H         141.9438  145.9965  162.2301 H       1  UNL1        0.1189
@<TRIPOS>BOND
     1    14    15    1
     2    15    16   ar
     3    16    17   ar
     4    17    18   ar
     5    18    12    1
     6    12     1    1
     7     1     2   ar
     8     2     3   ar
     9     3    24    1
    10    24    26    1
    11    26    27    1
    12    27    28    1
    13     3     4   ar
    14     4     5   ar
    15     5     6   ar
    16     6     7    1
    17     7     8   am
    18     7     9    2
    19    18    19   ar
    20    19    20   ar
    21    20    21    1
    22    21    22    1
    23    21    23    1
    24    20    15   ar
    25     6     1   ar
    26    12    13    1
    27    24    25    1
    28    28    29    1
    29    28    30    1
    30     8    10    1
    31     8    11    1
@<TRIPOS>MOLECULE
*****
 30 31 0 0 0
SMALL
GASTEIGER

@<TRIPOS>ATOM
      1 C         141.7222  143.8460  163.5342 C.ar    1  UNL1        0.0764
      2 C         143.0461  143.1620  163.7057 C.ar    1  UNL1        0.0522
      3 C         144.0107  143.0968  162.5588 C.ar    1  UNL1        0.1516
      4 N         143.6513  143.7155  161.2404 N.ar    1  UNL1       -0.1329
      5 N         142.3275  144.3995  161.0690 N.ar    1  UNL1       -0.1409
      6 C         141.3628  144.4648  162.2159 C.ar    1  UNL1        0.1691
      7 C         140.0390  145.1488  162.0444 C.2     1  UNL1        0.2635
      8 N         139.9483  146.6428  162.1430 N.am    1  UNL1       -0.3240
      9 O         138.8057  144.3388  161.7744 O.2     1  UNL1       -0.2686
     10 H         140.7578  147.1745  162.3202 H       1  UNL1        0.1453
     11 H         139.0794  147.0918  162.0304 H       1  UNL1        0.1453
     12 N         140.7576  143.9113  164.6811 N.pl3   1  UNL1       -0.2965
     13 H         140.5402  144.7788  165.0927 H       1  UNL1        0.1537
     14 C         138.2246  138.8853  166.7605 C.3     1  UNL1        0.0323
     15 C         138.8579  140.1418  166.2406 C.ar    1  UNL1       -0.0082
     16 C         138.4949  140.6570  164.8795 C.ar    1  UNL1       -0.0002
     17 C         139.1281  141.9135  164.3596 C.ar    1  UNL1        0.0341
     18 C         140.1244  142.6548  165.2009 C.ar    1  UNL1        0.1318
     19 N         140.4874  142.1396  166.5621 N.ar    1  UNL1       -0.2352
     20 C         139.8541  140.8832  167.0819 C.ar    1  UNL1        0.0560
     21 C         140.2172  140.3680  168.4432 C.3     1  UNL1        0.0400
     22 C         139.2709  140.5534  169.5922 C.3     1  UNL1        0.0063
     23 C         141.5265  139.6675  168.6553 C.3     1  UNL1        0.0063
     24 N         145.3346  142.4127  162.7302 N.pl3   1  UNL1       -0.3155
     25 H         146.0413  142.5319  162.0552 H       1  UNL1        0.1483
     26 C         145.5818  141.5471  163.9301 C.3     1  UNL1        0.1052
     27 C         145.0785  140.1343  163.9521 C.3     1  UNL1        0.0866
     28 N         144.6824  139.4591  162.6725 N.3     1  UNL1       -0.3197
     29 H         143.8642  139.9257  162.2810 H       1  UNL1        0.1189
     30 H         144.4596  138.4814  162.8588 H       1  UNL1        0.1189
@<TRIPOS>BOND
     1    14    15    1
     2    15    16   ar
     3    16    17   ar
     4    17    18   ar
     5    18    12    1
     6    12     1    1
     7     1     2   ar
     8     2     3   ar
     9     3    24    1
    10    24    26    1
    11    26    27    1
    12    27    28    1
    13     3     4   ar
    14     4     5   ar
    15     5     6   ar
    16     6     7    1
    17     7     8   am
    18     7     9    2
    19    18    19   ar
    20    19    20   ar
    21    20    21    1
    22    21    22    1
    23    21    23    1
    24    20    15   ar
    25     6     1   ar
    26    12    13    1
    27    24    25    1
    28    28    29    1
    29    28    30    1
    30     8    10    1
    31     8    11    1
@<TRIPOS>MOLECULE
*****
 30 31 0 0 0
SMALL
GASTEIGER

@<TRIPOS>ATOM
      1 C         142.8219  142.9820  164.6695 C.ar    1  UNL1        0.0764
      2 C         141.8374  144.0852  164.4168 C.ar    1  UNL1        0.0522
      3 C         141.9632  144.9358  163.1877 C.ar    1  UNL1        0.1516
      4 N         143.0736  144.6833  162.2113 N.ar    1  UNL1       -0.1329
      5 N         144.0581  143.5802  162.4640 N.ar    1  UNL1       -0.1409
      6 C         143.9323  142.7295  163.6931 C.ar    1  UNL1        0.1691
      7 C         144.9168  141.6264  163.9457 C.2     1  UNL1        0.2635
      8 N         146.3529  141.7972  163.5479 N.am    1  UNL1       -0.3240
      9 O         144.4652  140.3526  164.5963 O.2     1  UNL1       -0.2686
     10 H         146.6494  142.6333  163.1209 H       1  UNL1        0.1453
     11 H         146.9991  141.0732  163.7137 H       1  UNL1        0.1453
     12 N         142.6961  142.1315  165.8986 N.pl3   1  UNL1       -0.2965
     13 H         143.4114  142.1351  166.5750 H       1  UNL1        0.1537
     14 C         137.8335  138.7072  166.6923 C.3     1  UNL1        0.0323
     15 C         139.0492  139.5633  166.4939 C.ar    1  UNL1       -0.0082
     16 C         139.7157  140.2047  167.6747 C.ar    1  UNL1       -0.0002
     17 C         140.9313  141.0607  167.4762 C.ar    1  UNL1        0.0341
     18 C         141.4804  141.2754  166.0970 C.ar    1  UNL1        0.1318
     19 N         140.8139  140.6341  164.9162 N.ar    1  UNL1       -0.2352
     20 C         139.5983  139.7780  165.1146 C.ar    1  UNL1        0.0560
     21 C         138.9317  139.1366  163.9337 C.3     1  UNL1        0.0400
     22 C         139.2349  137.7096  163.5850 C.3     1  UNL1        0.0063
     23 C         137.9620  139.9224  163.1016 C.3     1  UNL1        0.0063
     24 N         140.9787  146.0389  162.9350 N.pl3   1  UNL1       -0.3155
     25 H         140.9498  146.8197  163.5340 H       1  UNL1        0.1483
     26 C         140.0382  145.9524  161.7697 C.3     1  UNL1        0.1052
     27 C         139.5806  144.6131  161.2731 C.3     1  UNL1        0.0866
     28 N         138.4292  143.9196  161.9390 N.3     1  UNL1       -0.3197
     29 H         138.6894  143.6682  162.8927 H       1  UNL1        0.1189
     30 H         138.1930  143.0755  161.4174 H       1  UNL1        0.1189
@<TRIPOS>BOND
     1    14    15    1
     2    15    16   ar
     3    16    17   ar
     4    17    18   ar
     5    18    12    1
     6    12     1    1
     7     1     2   ar
     8     2     3   ar
     9     3    24    1
    10    24    26    1
    11    26    27    1
    12    27    28    1
    13     3     4   ar
    14     4     5   ar
    15     5     6   ar
    16     6     7    1
    17     7     8   am
    18     7     9    2
    19    18    19   ar
    20    19    20   ar
    21    20    21    1
    22    21    22    1
    23    21    23    1
    24    20    15   ar
    25     6     1   ar
    26    12    13    1
    27    24    25    1
    28    28    29    1
    29    28    30    1
    30     8    10    1
    31     8    11    1
@<TRIPOS>MOLECULE
*****
 30 31 0 0 0
SMALL
GASTEIGER

@<TRIPOS>ATOM
      1 C         140.8416  142.9091  164.0395 C.ar    1  UNL1        0.0764
      2 C         142.2997  142.5764  163.9238 C.ar    1  UNL1        0.0522
      3 C         143.2623  143.5980  163.3950 C.ar    1  UNL1        0.1516
      4 N         142.7669  144.9522  162.9818 N.ar    1  UNL1       -0.1329
      5 N         141.3089  145.2849  163.0975 N.ar    1  UNL1       -0.1409
      6 C         140.3462  144.2633  163.6264 C.ar    1  UNL1        0.1691
      7 C         138.8881  144.5960  163.7421 C.2     1  UNL1        0.2635
      8 N         138.0800  144.8651  162.5074 N.am    1  UNL1       -0.3240
      9 O         138.2383  144.6595  165.0925 O.2     1  UNL1       -0.2686
     10 H         138.5065  144.8234  161.6211 H       1  UNL1        0.1453
     11 H         137.1230  145.0835  162.5834 H       1  UNL1        0.1453
     12 N         139.8789  141.8875  164.5684 N.pl3   1  UNL1       -0.2965
     13 H         139.2338  141.4583  163.9611 H       1  UNL1        0.1537
     14 C         139.9599  140.4174  170.3849 C.3     1  UNL1        0.0323
     15 C         139.9396  140.7849  168.9308 C.ar    1  UNL1       -0.0082
     16 C         139.3165  139.8564  167.9311 C.ar    1  UNL1       -0.0002
     17 C         139.2962  140.2239  166.4770 C.ar    1  UNL1        0.0341
     18 C         139.8991  141.5200  166.0225 C.ar    1  UNL1        0.1318
     19 N         140.5223  142.4486  167.0222 N.ar    1  UNL1       -0.2352
     20 C         140.5425  142.0810  168.4764 C.ar    1  UNL1        0.0560
     21 C         141.1657  143.0097  169.4761 C.3     1  UNL1        0.0400
     22 C         142.5873  142.8027  169.9076 C.3     1  UNL1        0.0063
     23 C         140.3673  144.1453  170.0442 C.3     1  UNL1        0.0063
     24 N         144.7204  143.2653  163.2792 N.pl3   1  UNL1       -0.3155
     25 H         145.3990  143.9472  163.4884 H       1  UNL1        0.1483
     26 C         145.1446  141.8937  162.8447 C.3     1  UNL1        0.1052
     27 C         145.5080  140.8611  163.8701 C.3     1  UNL1        0.0866
     28 N         145.0824  139.4351  163.6821 N.3     1  UNL1       -0.3197
     29 H         144.0654  139.3744  163.7318 H       1  UNL1        0.1189
     30 H         145.4937  138.8579  164.4156 H       1  UNL1        0.1189
@<TRIPOS>BOND
     1    14    15    1
     2    15    16   ar
     3    16    17   ar
     4    17    18   ar
     5    18    12    1
     6    12     1    1
     7     1     2   ar
     8     2     3   ar
     9     3    24    1
    10    24    26    1
    11    26    27    1
    12    27    28    1
    13     3     4   ar
    14     4     5   ar
    15     5     6   ar
    16     6     7    1
    17     7     8   am
    18     7     9    2
    19    18    19   ar
    20    19    20   ar
    21    20    21    1
    22    21    22    1
    23    21    23    1
    24    20    15   ar
    25     6     1   ar
    26    12    13    1
    27    24    25    1
    28    28    29    1
    29    28    30    1
    30     8    10    1
    31     8    11    1
@<TRIPOS>MOLECULE
*****
 30 31 0 0 0
SMALL
GASTEIGER

@<TRIPOS>ATOM
      1 C         139.4682  141.0654  166.0179 C.ar    1  UNL1        0.0764
      2 C         139.8610  140.9385  167.4601 C.ar    1  UNL1        0.0522
      3 C         139.2239  139.8886  168.3213 C.ar    1  UNL1        0.1516
      4 N         138.1941  138.9655  167.7405 N.ar    1  UNL1       -0.1329
      5 N         137.8013  139.0923  166.2985 N.ar    1  UNL1       -0.1409
      6 C         138.4384  140.1423  165.4371 C.ar    1  UNL1        0.1691
      7 C         138.0456  140.2691  163.9951 C.2     1  UNL1        0.2635
      8 N         136.9706  141.2348  163.5926 N.am    1  UNL1       -0.3240
      9 O         138.7278  139.4302  162.9554 O.2     1  UNL1       -0.2686
     10 H         136.5229  141.7853  164.2750 H       1  UNL1        0.1453
     11 H         136.7129  141.3180  162.6461 H       1  UNL1        0.1453
     12 N         140.1053  142.1153  165.1567 N.pl3   1  UNL1       -0.2965
     13 H         139.5776  142.8883  164.8514 H       1  UNL1        0.1537
     14 C         145.8696  141.6039  163.5721 C.3     1  UNL1        0.0323
     15 C         144.4286  141.7317  163.9683 C.ar    1  UNL1       -0.0082
     16 C         144.0426  142.6113  165.1204 C.ar    1  UNL1       -0.0002
     17 C         142.6015  142.7391  165.5165 C.ar    1  UNL1        0.0341
     18 C         141.5464  141.9874  164.7605 C.ar    1  UNL1        0.1318
     19 N         141.9323  141.1079  163.6084 N.ar    1  UNL1       -0.2352
     20 C         143.3734  140.9800  163.2123 C.ar    1  UNL1        0.0560
     21 C         143.7593  140.1004  162.0601 C.3     1  UNL1        0.0400
     22 C         143.8921  140.6822  160.6840 C.3     1  UNL1        0.0063
     23 C         144.0124  138.6390  162.2842 C.3     1  UNL1        0.0063
     24 N         139.6167  139.7618  169.7635 N.pl3   1  UNL1       -0.3155
     25 H         139.0071  139.3280  170.4034 H       1  UNL1        0.1483
     26 C         140.9383  140.2958  170.2306 C.3     1  UNL1        0.1052
     27 C         142.1889  139.4961  170.0149 C.3     1  UNL1        0.0866
     28 N         143.3277  139.6086  170.9847 N.3     1  UNL1       -0.3197
     29 H         143.7179  140.5502  170.9432 H       1  UNL1        0.1189
     30 H         144.0497  138.9304  170.7415 H       1  UNL1        0.1189
@<TRIPOS>BOND
     1    14    15    1
     2    15    16   ar
     3    16    17   ar
     4    17    18   ar
     5    18    12    1
     6    12     1    1
     7     1     2   ar
     8     2     3   ar
     9     3    24    1
    10    24    26    1
    11    26    27    1
    12    27    28    1
    13     3     4   ar
    14     4     5   ar
    15     5     6   ar
    16     6     7    1
    17     7     8   am
    18     7     9    2
    19    18    19   ar
    20    19    20   ar
    21    20    21    1
    22    21    22    1
    23    21    23    1
    24    20    15   ar
    25     6     1   ar
    26    12    13    1
    27    24    25    1
    28    28    29    1
    29    28    30    1
    30     8    10    1
    31     8    11    1
@<TRIPOS>MOLECULE
*****
 30 31 0 0 0
SMALL
GASTEIGER

@<TRIPOS>ATOM
      1 C         143.6452  141.4066  165.5914 C.ar    1  UNL1        0.0764
      2 C         142.9158  141.2046  166.8865 C.ar    1  UNL1        0.0522
      3 C         142.7089  139.8190  167.4225 C.ar    1  UNL1        0.1516
      4 N         143.2313  138.6354  166.6634 N.ar    1  UNL1       -0.1329
      5 N         143.9606  138.8374  165.3683 N.ar    1  UNL1       -0.1409
      6 C         144.1676  140.2230  164.8323 C.ar    1  UNL1        0.1691
      7 C         144.8969  140.4250  163.5372 C.2     1  UNL1        0.2635
      8 N         144.5505  139.5865  162.3427 N.am    1  UNL1       -0.3240
      9 O         145.9726  141.4655  163.4366 O.2     1  UNL1       -0.2686
     10 H         143.8444  138.9036  162.4087 H       1  UNL1        0.1453
     11 H         145.0291  139.7191  161.4926 H       1  UNL1        0.1453
     12 N         143.8521  142.7922  165.0554 N.pl3   1  UNL1       -0.2965
     13 H         144.7245  143.2358  165.1614 H       1  UNL1        0.1537
     14 C         139.3625  145.6311  162.2654 C.3     1  UNL1        0.0323
     15 C         140.4849  144.9214  162.9629 C.ar    1  UNL1       -0.0082
     16 C         141.8716  144.9693  162.3931 C.ar    1  UNL1       -0.0002
     17 C         142.9940  144.2596  163.0906 C.ar    1  UNL1        0.0341
     18 C         142.7297  143.5019  164.3579 C.ar    1  UNL1        0.1318
     19 N         141.3429  143.4539  164.9276 N.ar    1  UNL1       -0.2352
     20 C         140.2206  144.1637  164.2301 C.ar    1  UNL1        0.0560
     21 C         138.8338  144.1157  164.7999 C.3     1  UNL1        0.0400
     22 C         137.8658  143.0705  164.3304 C.3     1  UNL1        0.0063
     23 C         138.4151  145.1129  165.8393 C.3     1  UNL1        0.0063
     24 N         141.9796  139.6169  168.7176 N.pl3   1  UNL1       -0.3155
     25 H         141.1035  139.1678  168.7244 H       1  UNL1        0.1483
     26 C         142.5851  140.0991  170.0025 C.3     1  UNL1        0.1052
     27 C         141.8329  141.0638  170.8705 C.3     1  UNL1        0.0866
     28 N         140.7480  140.5665  171.7792 N.3     1  UNL1       -0.3197
     29 H         139.9764  140.2027  171.2200 H       1  UNL1        0.1189
     30 H         140.4135  141.3344  172.3613 H       1  UNL1        0.1189
@<TRIPOS>BOND
     1    14    15    1
     2    15    16   ar
     3    16    17   ar
     4    17    18   ar
     5    18    12    1
     6    12     1    1
     7     1     2   ar
     8     2     3   ar
     9     3    24    1
    10    24    26    1
    11    26    27    1
    12    27    28    1
    13     3     4   ar
    14     4     5   ar
    15     5     6   ar
    16     6     7    1
    17     7     8   am
    18     7     9    2
    19    18    19   ar
    20    19    20   ar
    21    20    21    1
    22    21    22    1
    23    21    23    1
    24    20    15   ar
    25     6     1   ar
    26    12    13    1
    27    24    25    1
    28    28    29    1
    29    28    30    1
    30     8    10    1
    31     8    11    1
@<TRIPOS>MOLECULE
*****
 30 31 0 0 0
SMALL
GASTEIGER

@<TRIPOS>ATOM
      1 C         140.5694  139.6027  167.3627 C.ar    1  UNL1        0.0764
      2 C         141.5978  140.1255  168.3216 C.ar    1  UNL1        0.0522
      3 C         141.1929  140.5318  169.7075 C.ar    1  UNL1        0.1516
      4 N         139.7597  140.4155  170.1347 N.ar    1  UNL1       -0.1329
      5 N         138.7314  139.8928  169.1759 N.ar    1  UNL1       -0.1409
      6 C         139.1362  139.4864  167.7899 C.ar    1  UNL1        0.1691
      7 C         138.1079  138.9637  166.8311 C.2     1  UNL1        0.2635
      8 N         137.2593  137.7863  167.2099 N.am    1  UNL1       -0.3240
      9 O         137.9283  139.6185  165.4936 O.2     1  UNL1       -0.2686
     10 H         137.3772  137.3566  168.0877 H       1  UNL1        0.1453
     11 H         136.5843  137.4433  166.5805 H       1  UNL1        0.1453
     12 N         140.9743  139.1964  165.9768 N.pl3   1  UNL1       -0.2965
     13 H         140.4368  138.5378  165.4801 H       1  UNL1        0.1537
     14 C         145.8695  141.5841  163.4598 C.3     1  UNL1        0.0323
     15 C         144.6457  140.9872  164.0890 C.ar    1  UNL1       -0.0082
     16 C         144.6731  139.5731  164.5886 C.ar    1  UNL1       -0.0002
     17 C         143.4492  138.9762  165.2179 C.ar    1  UNL1        0.0341
     18 C         142.1981  139.7933  165.3475 C.ar    1  UNL1        0.1318
     19 N         142.1707  141.2073  164.8479 N.ar    1  UNL1       -0.2352
     20 C         143.3946  141.8043  164.2187 C.ar    1  UNL1        0.0560
     21 C         143.3672  143.2184  163.7191 C.3     1  UNL1        0.0400
     22 C         143.8794  144.3302  164.5860 C.3     1  UNL1        0.0063
     23 C         142.8275  143.5207  162.3526 C.3     1  UNL1        0.0063
     24 N         142.2212  141.0546  170.6664 N.pl3   1  UNL1       -0.3155
     25 H         142.5171  140.4980  171.4227 H       1  UNL1        0.1483
     26 C         142.7988  142.4253  170.4730 C.3     1  UNL1        0.1052
     27 C         144.1005  142.5951  169.7472 C.3     1  UNL1        0.0866
     28 N         145.2565  143.2667  170.4275 N.3     1  UNL1       -0.3197
     29 H         145.0278  144.2458  170.5992 H       1  UNL1        0.1189
     30 H         146.0818  143.2098  169.8309 H       1  UNL1        0.1189
@<TRIPOS>BOND
     1    14    15    1
     2    15    16   ar
     3    16    17   ar
     4    17    18   ar
     5    18    12    1
     6    12     1    1
     7     1     2   ar
     8     2     3   ar
     9     3    24    1
    10    24    26    1
    11    26    27    1
    12    27    28    1
    13     3     4   ar
    14     4     5   ar
    15     5     6   ar
    16     6     7    1
    17     7     8   am
    18     7     9    2
    19    18    19   ar
    20    19    20   ar
    21    20    21    1
    22    21    22    1
    23    21    23    1
    24    20    15   ar
    25     6     1   ar
    26    12    13    1
    27    24    25    1
    28    28    29    1
    29    28    30    1
    30     8    10    1
    31     8    11    1
