@<TRIPOS>MOLECULE
*****
 40 45 0 0 0
SMALL
GASTEIGER

@<TRIPOS>ATOM
      1 C         137.8321  142.8734  163.6144 C.3     1  UNL1        0.0932
      2 C         137.7338  141.6044  164.4079 C.3     1  UNL1        0.0286
      3 C         137.7474  140.2784  163.7067 C.3     1  UNL1        0.0193
      4 C         137.8595  140.2216  162.2120 C.3     1  UNL1        0.0700
      5 C         137.9579  141.4907  161.4184 C.3     1  UNL1        0.0193
      6 C         137.9442  142.8167  162.1196 C.3     1  UNL1        0.0286
      7 C         137.8561  140.9716  162.5517 C.3     1  UNL1        0.1562
      8 O         137.8437  142.1706  163.1857 O.3     1  UNL1       -0.3572
      9 N         137.8732  138.8956  161.5108 N.3     1  UNL1       -0.2926
     10 H         137.3240  139.0075  160.6585 H       1  UNL1        0.1236
     11 C         139.1773  138.2742  161.1070 C.3     1  UNL1        0.1152
     12 C         140.3736  138.3914  162.0043 C.ar    1  UNL1        0.0765
     13 C         140.4965  137.5074  163.2098 C.ar    1  UNL1        0.0193
     14 C         141.6928  137.6247  164.1071 C.ar    1  UNL1        0.0411
     15 C         142.7663  138.6259  163.7987 C.ar    1  UNL1        0.1708
     16 C         142.6434  139.5099  162.5932 C.ar    1  UNL1        0.1682
     17 N         141.4471  139.3927  161.6960 N.ar    1  UNL1       -0.2304
     18 N         143.7169  140.5112  162.2848 N.am    1  UNL1       -0.2639
     19 C         144.9132  140.6285  163.1821 C.2     1  UNL1        0.2718
     20 O         145.9867  141.6297  162.8738 O.2     1  UNL1       -0.2707
     21 C         145.0361  139.7444  164.3877 C.3     1  UNL1        0.2898
     22 O         143.9626  138.7432  164.6960 O.3     1  UNL1       -0.4628
     23 H         143.6363  141.0915  161.4936 H       1  UNL1        0.1565
     24 C         137.8184  144.1994  164.3156 C.3     1  UNL1        0.0319
     25 C         138.9337  144.5655  165.2494 C.3     1  UNL1        0.0304
     26 C         141.8535  140.8826  167.9253 C.ar    1  UNL1        0.1589
     27 C         142.7018  141.3273  166.7711 C.ar    1  UNL1        0.0591
     28 C         142.1840  142.3593  165.8134 C.ar    1  UNL1        0.1016
     29 N         143.0323  142.8040  164.6592 N.ar    1  UNL1       -0.2422
     30 C         142.5145  143.8360  163.7016 C.ar    1  UNL1        0.0986
     31 C         141.1483  144.4231  163.8984 C.ar    1  UNL1        0.0179
     32 C         140.2999  143.9784  165.0527 C.ar    1  UNL1       -0.0014
     33 C         140.8178  142.9464  166.0102 C.ar    1  UNL1        0.0951
     34 N         139.9694  142.5016  167.1646 N.ar    1  UNL1       -0.2399
     35 CA        140.4873  141.4697  168.1221 C.ar    1  UNL1        0.1290
     36 C         139.6389  141.0249  169.2765 C.2     1  UNL1        0.0935
     37 O         138.8954  139.7242  169.2034 O.co2   1  UNL1       -0.5429
     38 OXT       139.5341  141.8808  170.5038 O.co2   1  UNL1       -0.5429
     39 C         142.9719  140.2750  170.1903 C.3     1  UNL1        0.2525
     40 O         142.3713  139.8506  168.8830 O.3     1  UNL1       -0.4698
@<TRIPOS>UNITY_ATOM_ATTR
37 1
charge -1
@<TRIPOS>BOND
     1    39    40    1
     2    40    26    1
     3    26    27   ar
     4    27    28   ar
     5    28    29   ar
     6    29    30   ar
     7    30    31   ar
     8    31    32   ar
     9    32    25    1
    10    25    24    1
    11    24     1    1
    12     1     2    1
    13     2     3    1
    14     3     4    1
    15     4     9    1
    16     9    11    1
    17    11    12    1
    18    12    13   ar
    19    13    14   ar
    20    14    15   ar
    21    15    16   ar
    22    16    17   ar
    23    16    18    1
    24    18    19   am
    25    19    20    2
    26    19    21    1
    27    21    22    1
    28     4     5    1
    29     5     6    1
    30     4     7    1
    31     7     8    1
    32    32    33   ar
    33    33    34   ar
    34    34    35   ar
    35    35    36    1
    36    36    37   ar
    37    36    38   ar
    38    35    26   ar
    39    33    28   ar
    40     6     1    1
    41     8     1    1
    42    17    12   ar
    43    22    15    1
    44     9    10    1
    45    18    23    1
@<TRIPOS>MOLECULE
*****
 40 45 0 0 0
SMALL
GASTEIGER

@<TRIPOS>ATOM
      1 C         141.8885  138.0864  163.9979 C.3     1  UNL1        0.0932
      2 C         142.0933  138.5489  162.5858 C.3     1  UNL1        0.0286
      3 C         143.3111  139.3480  162.2275 C.3     1  UNL1        0.0193
      4 C         144.3241  139.6845  163.2813 C.3     1  UNL1        0.0700
      5 C         144.1193  139.2220  164.6935 C.3     1  UNL1        0.0193
      6 C         142.9015  138.4229  165.0518 C.3     1  UNL1        0.0286
      7 C         143.6726  139.2443  163.5256 C.3     1  UNL1        0.1562
      8 O         142.5714  138.5217  163.8496 O.3     1  UNL1       -0.3572
      9 N         145.5419  140.4836  162.9231 N.3     1  UNL1       -0.2926
     10 H         145.6578  140.4067  161.9126 H       1  UNL1        0.1236
     11 C         145.6049  141.9448  163.2561 C.3     1  UNL1        0.1152
     12 C         144.3734  142.7936  163.1430 C.ar    1  UNL1        0.0765
     13 C         143.6594  143.2481  164.3814 C.ar    1  UNL1        0.0193
     14 C         142.4279  144.0969  164.2684 C.ar    1  UNL1        0.0411
     15 C         141.9103  144.4912  162.9169 C.ar    1  UNL1        0.1708
     16 C         142.6242  144.0367  161.6785 C.ar    1  UNL1        0.1682
     17 N         143.8558  143.1879  161.7916 N.ar    1  UNL1       -0.2304
     18 N         142.1066  144.4311  160.3269 N.am    1  UNL1       -0.2639
     19 C         140.8750  145.2799  160.2138 C.2     1  UNL1        0.2718
     20 O         140.3574  145.6742  158.8624 O.2     1  UNL1       -0.2707
     21 C         140.1611  145.7343  161.4523 C.3     1  UNL1        0.2898
     22 O         140.6787  145.3400  162.8038 O.3     1  UNL1       -0.4628
     23 H         142.5752  144.1328  159.5141 H       1  UNL1        0.1565
     24 C         140.6707  137.2873  164.3562 C.3     1  UNL1        0.0319
     25 C         139.4152  137.9859  164.7871 C.3     1  UNL1        0.0304
     26 C         140.8293  142.0170  168.1037 C.ar    1  UNL1        0.1589
     27 C         140.2350  142.6666  166.8893 C.ar    1  UNL1        0.0591
     28 C         139.7329  141.8212  165.7565 C.ar    1  UNL1        0.1016
     29 N         139.1386  142.4707  164.5421 N.ar    1  UNL1       -0.2422
     30 C         138.6365  141.6253  163.4093 C.ar    1  UNL1        0.0986
     31 C         138.7287  140.1304  163.4910 C.ar    1  UNL1        0.0179
     32 C         139.3230  139.4808  164.7054 C.ar    1  UNL1       -0.0014
     33 C         139.8251  140.3262  165.8382 C.ar    1  UNL1        0.0951
     34 N         140.4194  139.6767  167.0527 N.ar    1  UNL1       -0.2399
     35 CA        140.9215  140.5221  168.1854 C.ar    1  UNL1        0.1290
     36 C         141.5159  139.8726  169.3999 C.2     1  UNL1        0.0935
     37 O         142.9983  139.6617  169.4880 O.co2   1  UNL1       -0.5429
     38 OXT       140.6277  139.4340  170.5263 O.co2   1  UNL1       -0.5429
     39 C         140.4333  143.8878  169.8626 C.3     1  UNL1        0.2525
     40 O         141.3315  142.8625  169.2366 O.3     1  UNL1       -0.4698
@<TRIPOS>UNITY_ATOM_ATTR
37 1
charge -1
@<TRIPOS>BOND
     1    39    40    1
     2    40    26    1
     3    26    27   ar
     4    27    28   ar
     5    28    29   ar
     6    29    30   ar
     7    30    31   ar
     8    31    32   ar
     9    32    25    1
    10    25    24    1
    11    24     1    1
    12     1     2    1
    13     2     3    1
    14     3     4    1
    15     4     9    1
    16     9    11    1
    17    11    12    1
    18    12    13   ar
    19    13    14   ar
    20    14    15   ar
    21    15    16   ar
    22    16    17   ar
    23    16    18    1
    24    18    19   am
    25    19    20    2
    26    19    21    1
    27    21    22    1
    28     4     5    1
    29     5     6    1
    30     4     7    1
    31     7     8    1
    32    32    33   ar
    33    33    34   ar
    34    34    35   ar
    35    35    36    1
    36    36    37   ar
    37    36    38   ar
    38    35    26   ar
    39    33    28   ar
    40     6     1    1
    41     8     1    1
    42    17    12   ar
    43    22    15    1
    44     9    10    1
    45    18    23    1
@<TRIPOS>MOLECULE
*****
 40 45 0 0 0
SMALL
GASTEIGER

@<TRIPOS>ATOM
      1 C         140.0463  137.7321  164.3697 C.3     1  UNL1        0.0932
      2 C         141.3791  137.9691  165.0157 C.3     1  UNL1        0.0286
      3 C         142.6109  138.0964  164.1691 C.3     1  UNL1        0.0193
      4 C         142.5098  137.9868  162.6766 C.3     1  UNL1        0.0700
      5 C         141.1769  137.7498  162.0305 C.3     1  UNL1        0.0193
      6 C         139.9452  137.6224  162.8770 C.3     1  UNL1        0.0286
      7 C         141.8071  137.9103  163.0988 C.3     1  UNL1        0.1562
      8 O         140.6933  137.7951  163.8643 O.3     1  UNL1       -0.3572
      9 N         143.7415  138.1141  161.8300 N.3     1  UNL1       -0.2926
     10 H         143.6502  137.4361  161.0735 H       1  UNL1        0.1236
     11 C         144.0818  139.4293  161.1940 C.3     1  UNL1        0.1152
     12 C         143.8508  140.7074  161.9445 C.ar    1  UNL1        0.0765
     13 C         144.7061  141.0466  163.1291 C.ar    1  UNL1        0.0193
     14 C         144.4752  142.3246  163.8795 C.ar    1  UNL1        0.0411
     15 C         143.3890  143.2635  163.4454 C.ar    1  UNL1        0.1708
     16 C         142.5337  142.9243  162.2608 C.ar    1  UNL1        0.1682
     17 N         142.7646  141.6462  161.5103 N.ar    1  UNL1       -0.2304
     18 N         141.4474  143.8632  161.8265 N.am    1  UNL1       -0.2639
     19 C         141.2164  145.1413  162.5770 C.2     1  UNL1        0.2718
     20 O         140.1302  146.0802  162.1428 O.2     1  UNL1       -0.2707
     21 C         142.0718  145.4805  163.7616 C.3     1  UNL1        0.2898
     22 O         143.1580  144.5416  164.1958 O.3     1  UNL1       -0.4628
     23 H         140.8860  143.6406  161.0490 H       1  UNL1        0.1565
     24 C         138.8146  137.6047  165.2162 C.3     1  UNL1        0.0319
     25 C         138.0496  138.8313  165.6167 C.3     1  UNL1        0.0304
     26 C         141.2622  141.9027  168.6982 C.ar    1  UNL1        0.1589
     27 C         141.0132  142.6882  167.4448 C.ar    1  UNL1        0.0591
     28 C         140.1477  142.1167  166.3611 C.ar    1  UNL1        0.1016
     29 N         139.8986  142.9022  165.1077 N.ar    1  UNL1       -0.2422
     30 C         139.0332  142.3307  164.0240 C.ar    1  UNL1        0.0986
     31 C         138.4169  140.9737  164.1937 C.ar    1  UNL1        0.0179
     32 C         138.6660  140.1882  165.4470 C.ar    1  UNL1       -0.0014
     33 C         139.5314  140.7597  166.5307 C.ar    1  UNL1        0.0951
     34 N         139.7805  139.9742  167.7841 N.ar    1  UNL1       -0.2399
     35 CA        140.6459  140.5457  168.8678 C.ar    1  UNL1        0.1290
     36 C         140.8950  139.7602  170.1213 C.2     1  UNL1        0.0935
     37 O         142.2227  139.0971  170.3394 O.co2   1  UNL1       -0.5429
     38 OXT       139.8165  139.6378  171.1565 O.co2   1  UNL1       -0.5429
     39 C         143.6196  142.3439  169.6973 C.3     1  UNL1        0.2525
     40 O         142.1277  142.4741  169.7820 O.3     1  UNL1       -0.4698
@<TRIPOS>UNITY_ATOM_ATTR
37 1
charge -1
@<TRIPOS>BOND
     1    39    40    1
     2    40    26    1
     3    26    27   ar
     4    27    28   ar
     5    28    29   ar
     6    29    30   ar
     7    30    31   ar
     8    31    32   ar
     9    32    25    1
    10    25    24    1
    11    24     1    1
    12     1     2    1
    13     2     3    1
    14     3     4    1
    15     4     9    1
    16     9    11    1
    17    11    12    1
    18    12    13   ar
    19    13    14   ar
    20    14    15   ar
    21    15    16   ar
    22    16    17   ar
    23    16    18    1
    24    18    19   am
    25    19    20    2
    26    19    21    1
    27    21    22    1
    28     4     5    1
    29     5     6    1
    30     4     7    1
    31     7     8    1
    32    32    33   ar
    33    33    34   ar
    34    34    35   ar
    35    35    36    1
    36    36    37   ar
    37    36    38   ar
    38    35    26   ar
    39    33    28   ar
    40     6     1    1
    41     8     1    1
    42    17    12   ar
    43    22    15    1
    44     9    10    1
    45    18    23    1
@<TRIPOS>MOLECULE
*****
 40 45 0 0 0
SMALL
GASTEIGER

@<TRIPOS>ATOM
      1 C         142.5939  144.0857  163.8271 C.3     1  UNL1        0.0932
      2 C         141.2636  144.2609  164.4975 C.3     1  UNL1        0.0286
      3 C         140.0019  144.1964  163.6888 C.3     1  UNL1        0.0193
      4 C         140.0705  143.9568  162.2097 C.3     1  UNL1        0.0700
      5 C         141.4009  143.7816  161.5392 C.3     1  UNL1        0.0193
      6 C         142.6626  143.8461  162.3479 C.3     1  UNL1        0.0286
      7 C         140.7890  143.9841  162.6110 C.3     1  UNL1        0.1562
      8 O         141.9299  144.0423  163.3423 O.3     1  UNL1       -0.3572
      9 N         138.8089  143.8924  161.4009 N.3     1  UNL1       -0.2926
     10 H         138.9589  144.4713  160.5747 H       1  UNL1        0.1236
     11 C         138.2961  142.5691  160.9152 C.3     1  UNL1        0.1152
     12 C         138.5588  141.3251  161.7111 C.ar    1  UNL1        0.0765
     13 C         139.3177  140.1872  161.0954 C.ar    1  UNL1        0.0193
     14 C         139.5804  138.9431  161.8912 C.ar    1  UNL1        0.0411
     15 C         139.0841  138.8370  163.3027 C.ar    1  UNL1        0.1708
     16 C         138.3251  139.9749  163.9184 C.ar    1  UNL1        0.1682
     17 N         138.0625  141.2189  163.1226 N.ar    1  UNL1       -0.2304
     18 N         137.8288  139.8688  165.3300 N.am    1  UNL1       -0.2639
     19 C         138.0914  138.6247  166.1258 C.2     1  UNL1        0.2718
     20 O         137.5951  138.5186  167.5373 O.2     1  UNL1       -0.2707
     21 C         138.8505  137.4868  165.5101 C.3     1  UNL1        0.2898
     22 O         139.3468  137.5929  164.0986 O.3     1  UNL1       -0.4628
     23 H         137.3306  140.6156  165.7341 H       1  UNL1        0.1565
     24 C         143.8556  144.1501  164.6358 C.3     1  UNL1        0.0319
     25 C         144.4653  142.8906  165.1760 C.3     1  UNL1        0.0304
     26 C         141.1136  141.0690  169.0097 C.ar    1  UNL1        0.1589
     27 C         141.1138  140.0290  167.9289 C.ar    1  UNL1        0.0591
     28 C         141.9518  140.2244  166.7001 C.ar    1  UNL1        0.1016
     29 N         141.9520  139.1843  165.6193 N.ar    1  UNL1       -0.2422
     30 C         142.7900  139.3797  164.3907 C.ar    1  UNL1        0.0986
     31 C         143.6278  140.6152  164.2429 C.ar    1  UNL1        0.0179
     32 C         143.6276  141.6552  165.3238 C.ar    1  UNL1       -0.0014
     33 C         142.7896  141.4598  166.5524 C.ar    1  UNL1        0.0951
     34 N         142.7893  142.4999  167.6333 N.ar    1  UNL1       -0.2399
     35 CA        141.9513  142.3045  168.8619 C.ar    1  UNL1        0.1290
     36 C         141.9511  143.3445  169.9429 C.2     1  UNL1        0.0935
     37 O         143.1739  143.5491  170.7871 O.co2   1  UNL1       -0.5429
     38 OXT       140.7280  144.1800  170.1795 O.co2   1  UNL1       -0.5429
     39 C         138.8461  140.4376  170.1097 C.3     1  UNL1        0.2525
     40 O         140.2755  140.8737  170.2384 O.3     1  UNL1       -0.4698
@<TRIPOS>UNITY_ATOM_ATTR
37 1
charge -1
@<TRIPOS>BOND
     1    39    40    1
     2    40    26    1
     3    26    27   ar
     4    27    28   ar
     5    28    29   ar
     6    29    30   ar
     7    30    31   ar
     8    31    32   ar
     9    32    25    1
    10    25    24    1
    11    24     1    1
    12     1     2    1
    13     2     3    1
    14     3     4    1
    15     4     9    1
    16     9    11    1
    17    11    12    1
    18    12    13   ar
    19    13    14   ar
    20    14    15   ar
    21    15    16   ar
    22    16    17   ar
    23    16    18    1
    24    18    19   am
    25    19    20    2
    26    19    21    1
    27    21    22    1
    28     4     5    1
    29     5     6    1
    30     4     7    1
    31     7     8    1
    32    32    33   ar
    33    33    34   ar
    34    34    35   ar
    35    35    36    1
    36    36    37   ar
    37    36    38   ar
    38    35    26   ar
    39    33    28   ar
    40     6     1    1
    41     8     1    1
    42    17    12   ar
    43    22    15    1
    44     9    10    1
    45    18    23    1
@<TRIPOS>MOLECULE
*****
 40 45 0 0 0
SMALL
GASTEIGER

@<TRIPOS>ATOM
      1 C         139.2941  137.8742  164.6729 C.3     1  UNL1        0.0932
      2 C         140.6915  137.4089  164.9567 C.3     1  UNL1        0.0286
      3 C         141.6618  137.2174  163.8289 C.3     1  UNL1        0.0193
      4 C         141.2346  137.4912  162.4173 C.3     1  UNL1        0.0700
      5 C         139.8370  137.9565  162.1335 C.3     1  UNL1        0.0193
      6 C         138.8668  138.1481  163.2613 C.3     1  UNL1        0.0286
      7 C         140.6675  137.6105  163.0023 C.3     1  UNL1        0.1562
      8 O         139.7902  137.7837  164.0221 O.3     1  UNL1       -0.3572
      9 N         142.2048  137.2996  161.2895 N.3     1  UNL1       -0.2926
     10 H         141.7492  137.6492  160.4466 H       1  UNL1        0.1236
     11 C         143.5590  137.9421  161.3479 C.3     1  UNL1        0.1152
     12 C         143.6804  139.4128  161.6165 C.ar    1  UNL1        0.0765
     13 C         143.4918  140.3971  160.5005 C.ar    1  UNL1        0.0193
     14 C         143.6133  141.8679  160.7692 C.ar    1  UNL1        0.0411
     15 C         143.9233  142.3543  162.1538 C.ar    1  UNL1        0.1708
     16 C         144.1119  141.3700  163.2698 C.ar    1  UNL1        0.1682
     17 N         143.9905  139.8992  163.0011 N.ar    1  UNL1       -0.2304
     18 N         144.4220  141.8564  164.6545 N.am    1  UNL1       -0.2639
     19 C         144.5435  143.3271  164.9231 C.2     1  UNL1        0.2718
     20 O         144.8535  143.8135  166.3077 O.2     1  UNL1       -0.2707
     21 C         144.3548  144.3115  163.8070 C.3     1  UNL1        0.2898
     22 O         144.0448  143.8251  162.4224 O.3     1  UNL1       -0.4628
     23 H         144.5458  141.2103  165.3870 H       1  UNL1        0.1565
     24 C         138.3238  138.0658  165.8008 C.3     1  UNL1        0.0319
     25 C         138.2202  139.3976  166.4830 C.3     1  UNL1        0.0304
     26 C         140.1279  143.8003  163.9875 C.ar    1  UNL1        0.1589
     27 C         141.1241  143.4640  165.0574 C.ar    1  UNL1        0.0591
     28 C         140.8962  142.2792  165.9487 C.ar    1  UNL1        0.1016
     29 N         141.8923  141.9430  167.0186 N.ar    1  UNL1       -0.2422
     30 C         141.6645  140.7582  167.9099 C.ar    1  UNL1        0.0986
     31 C         140.4404  139.9098  167.7313 C.ar    1  UNL1        0.0179
     32 C         139.4443  140.2460  166.6615 C.ar    1  UNL1       -0.0014
     33 C         139.6722  141.4308  165.7702 C.ar    1  UNL1        0.0951
     34 N         138.6760  141.7671  164.7003 N.ar    1  UNL1       -0.2399
     35 CA        138.9039  142.9518  163.8090 C.ar    1  UNL1        0.1290
     36 C         137.9077  143.2881  162.7391 C.2     1  UNL1        0.0935
     37 O         137.3770  144.6861  162.6212 O.co2   1  UNL1       -0.5429
     38 OXT       137.4423  142.2264  161.7872 O.co2   1  UNL1       -0.5429
     39 C         141.0103  144.8026  161.7589 C.3     1  UNL1        0.2525
     40 O         140.3558  144.9850  163.0962 O.3     1  UNL1       -0.4698
@<TRIPOS>UNITY_ATOM_ATTR
37 1
charge -1
@<TRIPOS>BOND
     1    39    40    1
     2    40    26    1
     3    26    27   ar
     4    27    28   ar
     5    28    29   ar
     6    29    30   ar
     7    30    31   ar
     8    31    32   ar
     9    32    25    1
    10    25    24    1
    11    24     1    1
    12     1     2    1
    13     2     3    1
    14     3     4    1
    15     4     9    1
    16     9    11    1
    17    11    12    1
    18    12    13   ar
    19    13    14   ar
    20    14    15   ar
    21    15    16   ar
    22    16    17   ar
    23    16    18    1
    24    18    19   am
    25    19    20    2
    26    19    21    1
    27    21    22    1
    28     4     5    1
    29     5     6    1
    30     4     7    1
    31     7     8    1
    32    32    33   ar
    33    33    34   ar
    34    34    35   ar
    35    35    36    1
    36    36    37   ar
    37    36    38   ar
    38    35    26   ar
    39    33    28   ar
    40     6     1    1
    41     8     1    1
    42    17    12   ar
    43    22    15    1
    44     9    10    1
    45    18    23    1
@<TRIPOS>MOLECULE
*****
 40 45 0 0 0
SMALL
GASTEIGER

@<TRIPOS>ATOM
      1 C         141.4622  137.8983  162.1270 C.3     1  UNL1        0.0932
      2 C         139.9801  137.8943  161.8967 C.3     1  UNL1        0.0286
      3 C         139.0425  137.6888  163.0494 C.3     1  UNL1        0.0193
      4 C         139.5871  137.4872  164.4324 C.3     1  UNL1        0.0700
      5 C         141.0694  137.4912  164.6627 C.3     1  UNL1        0.0193
      6 C         142.0070  137.6967  163.5100 C.3     1  UNL1        0.0286
      7 C         140.1402  137.5960  163.8322 C.3     1  UNL1        0.1562
      8 O         140.9880  137.7819  162.7899 O.3     1  UNL1       -0.3572
      9 N         138.6496  137.2816  165.5851 N.3     1  UNL1       -0.2926
     10 H         139.1800  136.8055  166.3147 H       1  UNL1        0.1236
     11 C         137.9862  138.4613  166.2319 C.3     1  UNL1        0.1152
     12 C         138.8157  139.6039  166.7381 C.ar    1  UNL1        0.0765
     13 C         139.2867  140.6666  165.7901 C.ar    1  UNL1        0.0193
     14 C         140.1163  141.8092  166.2964 C.ar    1  UNL1        0.0411
     15 C         140.4747  141.8891  167.7507 C.ar    1  UNL1        0.1708
     16 C         140.0037  140.8265  168.6987 C.ar    1  UNL1        0.1682
     17 N         139.1742  139.6838  168.1924 N.ar    1  UNL1       -0.2304
     18 N         140.3622  140.9064  170.1531 N.am    1  UNL1       -0.2639
     19 C         141.1917  142.0490  170.6594 C.2     1  UNL1        0.2718
     20 O         141.5502  142.1290  172.1137 O.2     1  UNL1       -0.2707
     21 C         141.6628  143.1117  169.7112 C.3     1  UNL1        0.2898
     22 O         141.3043  143.0318  168.2569 O.3     1  UNL1       -0.4628
     23 H         140.0531  140.2089  170.7753 H       1  UNL1        0.1565
     24 C         142.3998  138.1039  160.9743 C.3     1  UNL1        0.0319
     25 C         142.7413  139.4932  160.5239 C.3     1  UNL1        0.0304
     26 C         140.1605  143.5643  162.9765 C.ar    1  UNL1        0.1589
     27 C         141.5661  143.5875  163.4997 C.ar    1  UNL1        0.0591
     28 C         142.5627  142.5755  163.0174 C.ar    1  UNL1        0.1016
     29 N         143.9683  142.5987  163.5406 N.ar    1  UNL1       -0.2422
     30 C         144.9649  141.5868  163.0582 C.ar    1  UNL1        0.0986
     31 C         144.5559  140.5516  162.0526 C.ar    1  UNL1        0.0179
     32 C         143.1503  140.5284  161.5294 C.ar    1  UNL1       -0.0014
     33 C         142.1537  141.5404  162.0118 C.ar    1  UNL1        0.0951
     34 N         140.7481  141.5172  161.4886 N.ar    1  UNL1       -0.2399
     35 CA        139.7515  142.5292  161.9710 C.ar    1  UNL1        0.1290
     36 C         138.3459  142.5060  161.4478 C.2     1  UNL1        0.0935
     37 O         138.0526  143.0031  160.0633 O.co2   1  UNL1       -0.5429
     38 OXT       137.2335  141.9857  162.3091 O.co2   1  UNL1       -0.5429
     39 C         139.0422  144.8694  164.9250 C.3     1  UNL1        0.2525
     40 O         139.1638  144.5763  163.4589 O.3     1  UNL1       -0.4698
@<TRIPOS>UNITY_ATOM_ATTR
37 1
charge -1
@<TRIPOS>BOND
     1    39    40    1
     2    40    26    1
     3    26    27   ar
     4    27    28   ar
     5    28    29   ar
     6    29    30   ar
     7    30    31   ar
     8    31    32   ar
     9    32    25    1
    10    25    24    1
    11    24     1    1
    12     1     2    1
    13     2     3    1
    14     3     4    1
    15     4     9    1
    16     9    11    1
    17    11    12    1
    18    12    13   ar
    19    13    14   ar
    20    14    15   ar
    21    15    16   ar
    22    16    17   ar
    23    16    18    1
    24    18    19   am
    25    19    20    2
    26    19    21    1
    27    21    22    1
    28     4     5    1
    29     5     6    1
    30     4     7    1
    31     7     8    1
    32    32    33   ar
    33    33    34   ar
    34    34    35   ar
    35    35    36    1
    36    36    37   ar
    37    36    38   ar
    38    35    26   ar
    39    33    28   ar
    40     6     1    1
    41     8     1    1
    42    17    12   ar
    43    22    15    1
    44     9    10    1
    45    18    23    1
@<TRIPOS>MOLECULE
*****
 40 45 0 0 0
SMALL
GASTEIGER

@<TRIPOS>ATOM
      1 C         141.0603  144.7718  163.1267 C.3     1  UNL1        0.0932
      2 C         142.2481  144.9093  164.0324 C.3     1  UNL1        0.0286
      3 C         143.5857  144.3864  163.5997 C.3     1  UNL1        0.0193
      4 C         143.7357  143.7260  162.2613 C.3     1  UNL1        0.0700
      5 C         142.5479  143.5885  161.3555 C.3     1  UNL1        0.0193
      6 C         141.2103  144.1114  161.7882 C.3     1  UNL1        0.0286
      7 C         142.9827  143.9970  162.4548 C.3     1  UNL1        0.1562
      8 O         141.7730  144.4698  162.8460 O.3     1  UNL1       -0.3572
      9 N         145.0734  143.2032  161.8286 N.3     1  UNL1       -0.2926
     10 H         145.7512  143.9438  162.0086 H       1  UNL1        0.1236
     11 C         145.6249  141.9521  162.4455 C.3     1  UNL1        0.1152
     12 C         144.6939  140.9250  163.0186 C.ar    1  UNL1        0.0765
     13 C         144.9476  140.3626  164.3858 C.ar    1  UNL1        0.0193
     14 C         144.0166  139.3355  164.9589 C.ar    1  UNL1        0.0411
     15 C         142.8320  138.8709  164.1648 C.ar    1  UNL1        0.1708
     16 C         142.5783  139.4333  162.7976 C.ar    1  UNL1        0.1682
     17 N         143.5093  140.4604  162.2245 N.ar    1  UNL1       -0.2304
     18 N         141.3936  138.9686  162.0034 N.am    1  UNL1       -0.2639
     19 C         140.4626  137.9416  162.5764 C.2     1  UNL1        0.2718
     20 O         139.2780  137.4769  161.7823 O.2     1  UNL1       -0.2707
     21 C         140.7164  137.3792  163.9437 C.3     1  UNL1        0.2898
     22 O         141.9010  137.8438  164.7379 O.3     1  UNL1       -0.4628
     23 H         141.2271  139.3378  161.1060 H       1  UNL1        0.1565
     24 C         139.7227  145.2946  163.5594 C.3     1  UNL1        0.0319
     25 C         138.9924  144.6392  164.6939 C.3     1  UNL1        0.0304
     26 C         140.7020  140.6472  167.9174 C.ar    1  UNL1        0.1589
     27 C         139.8718  139.9949  166.8520 C.ar    1  UNL1        0.0591
     28 C         139.2368  140.8298  165.7796 C.ar    1  UNL1        0.1016
     29 N         138.4066  140.1776  164.7142 N.ar    1  UNL1       -0.2422
     30 C         137.7717  141.0125  163.6420 C.ar    1  UNL1        0.0986
     31 C         137.9670  142.4997  163.6352 C.ar    1  UNL1        0.0179
     32 C         138.7972  143.1520  164.7007 C.ar    1  UNL1       -0.0014
     33 C         139.4321  142.3171  165.7729 C.ar    1  UNL1        0.0951
     34 N         140.2623  142.9693  166.8384 N.ar    1  UNL1       -0.2399
     35 CA        140.8972  142.1344  167.9107 C.ar    1  UNL1        0.1290
     36 C         141.7275  142.7867  168.9762 C.2     1  UNL1        0.0935
     37 O         141.0607  143.4829  170.1254 O.co2   1  UNL1       -0.5429
     38 OXT       143.2245  142.7427  168.8925 O.co2   1  UNL1       -0.5429
     39 C         142.6956  139.2158  168.7699 C.3     1  UNL1        0.2525
     40 O         141.3370  139.8122  168.9897 O.3     1  UNL1       -0.4698
@<TRIPOS>UNITY_ATOM_ATTR
37 1
charge -1
@<TRIPOS>BOND
     1    39    40    1
     2    40    26    1
     3    26    27   ar
     4    27    28   ar
     5    28    29   ar
     6    29    30   ar
     7    30    31   ar
     8    31    32   ar
     9    32    25    1
    10    25    24    1
    11    24     1    1
    12     1     2    1
    13     2     3    1
    14     3     4    1
    15     4     9    1
    16     9    11    1
    17    11    12    1
    18    12    13   ar
    19    13    14   ar
    20    14    15   ar
    21    15    16   ar
    22    16    17   ar
    23    16    18    1
    24    18    19   am
    25    19    20    2
    26    19    21    1
    27    21    22    1
    28     4     5    1
    29     5     6    1
    30     4     7    1
    31     7     8    1
    32    32    33   ar
    33    33    34   ar
    34    34    35   ar
    35    35    36    1
    36    36    37   ar
    37    36    38   ar
    38    35    26   ar
    39    33    28   ar
    40     6     1    1
    41     8     1    1
    42    17    12   ar
    43    22    15    1
    44     9    10    1
    45    18    23    1
@<TRIPOS>MOLECULE
*****
 40 45 0 0 0
SMALL
GASTEIGER

@<TRIPOS>ATOM
      1 C         144.3383  139.5519  163.7976 C.3     1  UNL1        0.0932
      2 C         143.3239  139.2809  164.8687 C.3     1  UNL1        0.0286
      3 C         142.0968  138.4777  164.5537 C.3     1  UNL1        0.0193
      4 C         141.8841  137.9457  163.1675 C.3     1  UNL1        0.0700
      5 C         142.8986  138.2167  162.0962 C.3     1  UNL1        0.0193
      6 C         144.1257  139.0199  162.4113 C.3     1  UNL1        0.0286
      7 C         142.5720  138.3806  163.2923 C.3     1  UNL1        0.1562
      8 O         143.6816  139.1069  163.5772 O.3     1  UNL1       -0.3572
      9 N         140.6570  137.1425  162.8524 N.3     1  UNL1       -0.2926
     10 H         140.4354  136.6030  163.6892 H       1  UNL1        0.1236
     11 C         139.3934  137.8356  162.4368 C.3     1  UNL1        0.1152
     12 C         139.0265  139.1559  163.0469 C.ar    1  UNL1        0.0765
     13 C         138.4740  139.2105  164.4403 C.ar    1  UNL1        0.0193
     14 C         138.1072  140.5308  165.0504 C.ar    1  UNL1        0.0411
     15 C         138.2928  141.7965  164.2671 C.ar    1  UNL1        0.1708
     16 C         138.8453  141.7418  162.8737 C.ar    1  UNL1        0.1682
     17 N         139.2122  140.4215  162.2636 N.ar    1  UNL1       -0.2304
     18 N         139.0310  143.0075  162.0902 N.am    1  UNL1       -0.2639
     19 C         138.6641  144.3278  162.7003 C.2     1  UNL1        0.2718
     20 O         138.8498  145.5934  161.9170 O.2     1  UNL1       -0.2707
     21 C         138.1116  144.3824  164.0938 C.3     1  UNL1        0.2898
     22 O         137.9260  143.1168  164.8772 O.3     1  UNL1       -0.4628
     23 H         139.3936  142.9716  161.1757 H       1  UNL1        0.1565
     24 C         145.5654  140.3551  164.1126 C.3     1  UNL1        0.0319
     25 C         145.6987  141.7559  163.5932 C.3     1  UNL1        0.0304
     26 C         142.8654  143.2012  159.2190 C.ar    1  UNL1        0.1589
     27 C         142.1777  143.8390  160.3895 C.ar    1  UNL1        0.0591
     28 C         142.7141  143.6371  161.7758 C.ar    1  UNL1        0.1016
     29 N         142.0263  144.2749  162.9463 N.ar    1  UNL1       -0.2422
     30 C         142.5627  144.0730  164.3324 C.ar    1  UNL1        0.0986
     31 C         143.7869  143.2333  164.5481 C.ar    1  UNL1        0.0179
     32 C         144.4746  142.5955  163.3775 C.ar    1  UNL1       -0.0014
     33 C         143.9382  142.7974  161.9914 C.ar    1  UNL1        0.0951
     34 N         144.6259  142.1596  160.8207 N.ar    1  UNL1       -0.2399
     35 CA        144.0896  142.3615  159.4346 C.ar    1  UNL1        0.1290
     36 C         144.7773  141.7237  158.2639 C.2     1  UNL1        0.0935
     37 O         144.4748  140.3002  157.9008 O.co2   1  UNL1       -0.5429
     38 OXT       145.7675  142.5096  157.4565 O.co2   1  UNL1       -0.5429
     39 C         140.8874  143.1133  157.5368 C.3     1  UNL1        0.2525
     40 O         142.3291  143.4030  157.8327 O.3     1  UNL1       -0.4698
@<TRIPOS>UNITY_ATOM_ATTR
37 1
charge -1
@<TRIPOS>BOND
     1    39    40    1
     2    40    26    1
     3    26    27   ar
     4    27    28   ar
     5    28    29   ar
     6    29    30   ar
     7    30    31   ar
     8    31    32   ar
     9    32    25    1
    10    25    24    1
    11    24     1    1
    12     1     2    1
    13     2     3    1
    14     3     4    1
    15     4     9    1
    16     9    11    1
    17    11    12    1
    18    12    13   ar
    19    13    14   ar
    20    14    15   ar
    21    15    16   ar
    22    16    17   ar
    23    16    18    1
    24    18    19   am
    25    19    20    2
    26    19    21    1
    27    21    22    1
    28     4     5    1
    29     5     6    1
    30     4     7    1
    31     7     8    1
    32    32    33   ar
    33    33    34   ar
    34    34    35   ar
    35    35    36    1
    36    36    37   ar
    37    36    38   ar
    38    35    26   ar
    39    33    28   ar
    40     6     1    1
    41     8     1    1
    42    17    12   ar
    43    22    15    1
    44     9    10    1
    45    18    23    1
@<TRIPOS>MOLECULE
*****
 40 45 0 0 0
SMALL
GASTEIGER

@<TRIPOS>ATOM
      1 C         144.2899  142.2640  163.3459 C.3     1  UNL1        0.0932
      2 C         143.7447  142.9701  164.5518 C.3     1  UNL1        0.0286
      3 C         142.7883  144.1132  164.3830 C.3     1  UNL1        0.0193
      4 C         142.3772  144.5504  163.0084 C.3     1  UNL1        0.0700
      5 C         142.9224  143.8443  161.8024 C.3     1  UNL1        0.0193
      6 C         143.8787  142.7011  161.9712 C.3     1  UNL1        0.0286
      7 C         142.9037  143.9188  163.0507 C.3     1  UNL1        0.1562
      8 O         143.7685  142.8851  163.2033 O.3     1  UNL1       -0.3572
      9 N         141.4208  145.6936  162.8396 N.3     1  UNL1       -0.2926
     10 H         141.5025  146.0054  161.8718 H       1  UNL1        0.1236
     11 C         139.9586  145.4941  163.1082 C.3     1  UNL1        0.1152
     12 C         139.3131  144.1750  162.8029 C.ar    1  UNL1        0.0765
     13 C         138.6479  143.3944  163.8975 C.ar    1  UNL1        0.0193
     14 C         138.0023  142.0753  163.5922 C.ar    1  UNL1        0.0411
     15 C         138.0219  141.5368  162.1923 C.ar    1  UNL1        0.1708
     16 C         138.6871  142.3175  161.0978 C.ar    1  UNL1        0.1682
     17 N         139.3326  143.6366  161.4031 N.ar    1  UNL1       -0.2304
     18 N         138.7067  141.7790  159.6978 N.am    1  UNL1       -0.2639
     19 C         138.0611  140.4599  159.3925 C.2     1  UNL1        0.2718
     20 O         138.0807  139.9215  157.9927 O.2     1  UNL1       -0.2707
     21 C         137.3959  139.6793  160.4872 C.3     1  UNL1        0.2898
     22 O         137.3763  140.2177  161.8870 O.3     1  UNL1       -0.4628
     23 H         139.1433  142.2914  158.9794 H       1  UNL1        0.1565
     24 C         145.2462  141.1208  163.5147 C.3     1  UNL1        0.0319
     25 C         144.7571  139.8059  164.0453 C.3     1  UNL1        0.0304
     26 C         139.5035  139.2214  165.1890 C.ar    1  UNL1        0.1589
     27 C         139.7355  138.4773  163.9074 C.ar    1  UNL1        0.0591
     28 C         141.1070  138.4374  163.3010 C.ar    1  UNL1        0.1016
     29 N         141.3390  137.6933  162.0194 N.ar    1  UNL1       -0.2422
     30 C         142.7104  137.6535  161.4132 C.ar    1  UNL1        0.0986
     31 C         143.8498  138.3576  162.0884 C.ar    1  UNL1        0.0179
     32 C         143.6177  139.1017  163.3700 C.ar    1  UNL1       -0.0014
     33 C         142.2463  139.1416  163.9763 C.ar    1  UNL1        0.0951
     34 N         142.0142  139.8857  165.2580 N.ar    1  UNL1       -0.2399
     35 CA        140.6428  139.9256  165.8642 C.ar    1  UNL1        0.1290
     36 C         140.4107  140.6697  167.1459 C.2     1  UNL1        0.0935
     37 O         140.3753  139.9268  168.4485 O.co2   1  UNL1       -0.5429
     38 OXT       140.2140  142.1566  167.1248 O.co2   1  UNL1       -0.5429
     39 C         137.7222  138.2182  166.7923 C.3     1  UNL1        0.2525
     40 O         138.1320  139.2613  165.7953 O.3     1  UNL1       -0.4698
@<TRIPOS>UNITY_ATOM_ATTR
37 1
charge -1
@<TRIPOS>BOND
     1    39    40    1
     2    40    26    1
     3    26    27   ar
     4    27    28   ar
     5    28    29   ar
     6    29    30   ar
     7    30    31   ar
     8    31    32   ar
     9    32    25    1
    10    25    24    1
    11    24     1    1
    12     1     2    1
    13     2     3    1
    14     3     4    1
    15     4     9    1
    16     9    11    1
    17    11    12    1
    18    12    13   ar
    19    13    14   ar
    20    14    15   ar
    21    15    16   ar
    22    16    17   ar
    23    16    18    1
    24    18    19   am
    25    19    20    2
    26    19    21    1
    27    21    22    1
    28     4     5    1
    29     5     6    1
    30     4     7    1
    31     7     8    1
    32    32    33   ar
    33    33    34   ar
    34    34    35   ar
    35    35    36    1
    36    36    37   ar
    37    36    38   ar
    38    35    26   ar
    39    33    28   ar
    40     6     1    1
    41     8     1    1
    42    17    12   ar
    43    22    15    1
    44     9    10    1
    45    18    23    1
