@<TRIPOS>MOLECULE
*****
 43 47 0 0 0
SMALL
GASTEIGER

@<TRIPOS>ATOM
      1 C         140.1208  144.5787  162.8798 C.ar    1  UNL1       -0.0052
      2 C         139.3292  144.9694  164.0925 C.ar    1  UNL1       -0.0029
      3 C         139.3325  144.0882  165.3063 C.ar    1  UNL1       -0.0006
      4 C         140.1275  142.8162  165.3075 C.ar    1  UNL1       -0.0041
      5 C         140.9192  142.4254  164.0947 C.ar    1  UNL1       -0.0231
      6 C         140.9158  143.3067  162.8809 C.ar    1  UNL1       -0.0085
      7 C         141.7074  142.9159  161.6682 C.3     1  UNL1        0.1211
      8 N         142.5024  141.6440  161.6694 N.am    1  UNL1       -0.2598
      9 C         143.2940  141.2532  160.4566 C.2     1  UNL1        0.3041
     10 O         144.0890  139.9812  160.4578 O.2     1  UNL1       -0.2526
     11 N         143.2906  142.1344  159.2428 N.am    1  UNL1       -0.2919
     12 C         142.5058  140.7627  162.8832 C.3     1  UNL1        0.0999
     13 C         141.7142  141.1534  164.0959 C.3     1  UNL1        0.0476
     14 H         142.7689  142.9693  159.2421 H       1  UNL1        0.1508
     15 C         140.1309  141.9349  166.5213 C.ar    1  UNL1        0.0027
     16 C         139.3569  140.6500  166.5174 C.ar    1  UNL1        0.0002
     17 C         139.3603  139.7688  167.7312 C.ar    1  UNL1        0.0031
     18 C         140.1377  140.1724  168.9490 C.ar    1  UNL1        0.0372
     19 C         140.9116  141.4573  168.9528 C.ar    1  UNL1        0.1468
     20 C         140.9083  142.3385  167.7390 C.ar    1  UNL1        0.0372
     21 O         141.6891  141.8610  170.1705 O.3     1  UNL1       -0.4045
     22 C         143.1302  142.2571  170.0430 C.3     1  UNL1        0.5753
     23 F         144.5713  142.6532  169.9155 F       1  UNL1       -0.1328
     24 F         142.7742  143.6687  170.4045 F       1  UNL1       -0.1328
     25 F         143.4862  140.8455  169.6815 F       1  UNL1       -0.1328
     26 C         144.0822  141.7437  158.0301 C.3     1  UNL1        0.0583
     27 C         145.2426  142.5545  158.5263 C.3     1  UNL1        0.0197
     28 C         142.9219  140.9330  157.5339 C.3     1  UNL1        0.0197
     29 C         144.8738  141.3530  156.8173 C.3     1  UNL1        0.0197
     30 C         140.1174  145.4599  161.6660 C.3     1  UNL1        0.1161
     31 C         140.4822  144.9930  159.1364 C.2     1  UNL1        0.2227
     32 O         141.8580  145.5839  159.2257 O.2     1  UNL1       -0.2751
     33 N         139.6119  144.9310  160.3566 N.am    1  UNL1       -0.3004
     34 H         138.7089  144.5431  160.2979 H       1  UNL1        0.1497
     35 C         139.0949  143.5247  157.0587 C.3     1  UNL1        0.0883
     36 C         139.9829  144.4870  156.3271 C.3     1  UNL1        0.0194
     37 C         139.9767  144.4640  157.8269 C.3     1  UNL1        0.0858
     38 C         134.8538  140.6348  155.8170 C.3     1  UNL1        0.0773
     39 C         136.1237  141.0984  156.4669 C.ar    1  UNL1        0.1809
     40 N         136.8779  140.3758  157.5435 N.ar    1  UNL1       -0.0606
     41 O         138.0827  141.1967  157.8963 O.2     1  UNL1       -0.3374
     42 C         138.0731  142.4267  157.0376 C.ar    1  UNL1        0.2363
     43 N         136.8624  142.3659  156.1543 N.ar    1  UNL1       -0.1949
@<TRIPOS>BOND
     1    38    39    1
     2    39    40   ar
     3    40    41   ar
     4    41    42   ar
     5    35    42    1
     6    35    36    1
     7    36    37    1
     8    37    31    1
     9    31    32    2
    10    31    33   am
    11    33    30    1
    12    30     1    1
    13     1     2   ar
    14     2     3   ar
    15     3     4   ar
    16     4    15    1
    17    15    16   ar
    18    16    17   ar
    19    17    18   ar
    20    18    19   ar
    21    19    21    1
    22    21    22    1
    23    22    23    1
    24    22    24    1
    25    22    25    1
    26    19    20   ar
    27     4     5   ar
    28     5     6   ar
    29     6     7    1
    30     7     8    1
    31     8     9   am
    32     9    10    2
    33     9    11   am
    34    11    26    1
    35    26    27    1
    36    26    28    1
    37    26    29    1
    38     8    12    1
    39    12    13    1
    40    42    43   ar
    41    43    39   ar
    42    37    35    1
    43     6     1   ar
    44    20    15   ar
    45    13     5    1
    46    33    34    1
    47    11    14    1
@<TRIPOS>MOLECULE
*****
 43 47 0 0 0
SMALL
GASTEIGER

@<TRIPOS>ATOM
      1 C         139.4672  139.3828  160.4767 C.ar    1  UNL1       -0.0052
      2 C         138.9902  138.8939  159.1412 C.ar    1  UNL1       -0.0029
      3 C         139.9797  138.4148  158.1208 C.ar    1  UNL1       -0.0006
      4 C         141.4462  138.4247  158.4358 C.ar    1  UNL1       -0.0041
      5 C         141.9233  138.9137  159.7712 C.ar    1  UNL1       -0.0231
      6 C         140.9337  139.3928  160.7917 C.ar    1  UNL1       -0.0085
      7 C         141.4107  139.8817  162.1271 C.3     1  UNL1        0.1211
      8 N         142.8772  139.8916  162.4421 N.am    1  UNL1       -0.2598
      9 C         143.3542  140.3806  163.7775 C.2     1  UNL1        0.3041
     10 O         144.8207  140.3905  164.0925 O.2     1  UNL1       -0.2526
     11 N         142.3647  140.8597  164.7980 N.am    1  UNL1       -0.2919
     12 C         143.8667  139.4125  161.4216 C.3     1  UNL1        0.0999
     13 C         143.3898  138.9236  160.0862 C.3     1  UNL1        0.0476
     14 H         141.4022  140.8532  164.5912 H       1  UNL1        0.1508
     15 C         142.4358  137.9456  157.4153 C.ar    1  UNL1        0.0027
     16 C         143.1638  138.9349  156.5543 C.ar    1  UNL1        0.0002
     17 C         144.1533  138.4558  155.5339 C.ar    1  UNL1        0.0031
     18 C         144.4148  136.9874  155.3745 C.ar    1  UNL1        0.0372
     19 C         143.6869  135.9981  156.2355 C.ar    1  UNL1        0.1468
     20 C         142.6973  136.4772  157.2559 C.ar    1  UNL1        0.0372
     21 O         143.9484  134.5297  156.0761 O.3     1  UNL1       -0.4045
     22 C         142.8019  133.5784  155.9011 C.3     1  UNL1        0.5753
     23 F         141.6555  132.6270  155.7261 F       1  UNL1       -0.1328
     24 F         142.9266  133.1639  157.3373 F       1  UNL1       -0.1328
     25 F         142.6773  133.9928  154.4649 F       1  UNL1       -0.1328
     26 C         142.8416  141.3487  166.1334 C.3     1  UNL1        0.0583
     27 C         142.9776  142.7351  165.5772 C.3     1  UNL1        0.0197
     28 C         142.7057  139.9623  166.6896 C.3     1  UNL1        0.0197
     29 C         143.3186  141.8377  167.4689 C.3     1  UNL1        0.0197
     30 C         138.4776  139.8619  161.4971 C.3     1  UNL1        0.1161
     31 C         138.5319  139.9373  164.0935 C.2     1  UNL1        0.2227
     32 O         138.8093  141.4106  164.0450 O.2     1  UNL1       -0.2751
     33 N         138.3661  139.1630  162.8195 N.am    1  UNL1       -0.3004
     34 H         138.1840  138.1960  162.8514 H       1  UNL1        0.1497
     35 C         138.5687  139.2508  166.9085 C.3     1  UNL1        0.0883
     36 C         138.0787  138.0149  166.2140 C.3     1  UNL1        0.0194
     37 C         138.4203  139.2382  165.4160 C.3     1  UNL1        0.0858
     38 C         140.7546  142.6759  170.2806 C.3     1  UNL1        0.0773
     39 C         139.9421  141.5460  169.7213 C.ar    1  UNL1        0.1809
     40 N         139.0668  140.6157  170.5078 N.ar    1  UNL1       -0.0606
     41 O         138.4458  139.6426  169.5499 O.2     1  UNL1       -0.3374
     42 C         138.9373  139.9716  168.1713 C.ar    1  UNL1        0.2363
     43 N         139.8620  141.1479  168.2773 N.ar    1  UNL1       -0.1949
@<TRIPOS>BOND
     1    38    39    1
     2    39    40   ar
     3    40    41   ar
     4    41    42   ar
     5    35    42    1
     6    35    36    1
     7    36    37    1
     8    37    31    1
     9    31    32    2
    10    31    33   am
    11    33    30    1
    12    30     1    1
    13     1     2   ar
    14     2     3   ar
    15     3     4   ar
    16     4    15    1
    17    15    16   ar
    18    16    17   ar
    19    17    18   ar
    20    18    19   ar
    21    19    21    1
    22    21    22    1
    23    22    23    1
    24    22    24    1
    25    22    25    1
    26    19    20   ar
    27     4     5   ar
    28     5     6   ar
    29     6     7    1
    30     7     8    1
    31     8     9   am
    32     9    10    2
    33     9    11   am
    34    11    26    1
    35    26    27    1
    36    26    28    1
    37    26    29    1
    38     8    12    1
    39    12    13    1
    40    42    43   ar
    41    43    39   ar
    42    37    35    1
    43     6     1   ar
    44    20    15   ar
    45    13     5    1
    46    33    34    1
    47    11    14    1
@<TRIPOS>MOLECULE
*****
 43 47 0 0 0
SMALL
GASTEIGER

@<TRIPOS>ATOM
      1 C         142.4727  139.2443  160.7648 C.ar    1  UNL1       -0.0052
      2 C         142.6319  138.1146  161.7387 C.ar    1  UNL1       -0.0029
      3 C         141.9336  138.1639  163.0652 C.ar    1  UNL1       -0.0006
      4 C         141.0759  139.3428  163.4180 C.ar    1  UNL1       -0.0041
      5 C         140.9167  140.4726  162.4442 C.ar    1  UNL1       -0.0231
      6 C         141.6150  140.4233  161.1176 C.ar    1  UNL1       -0.0085
      7 C         141.4558  141.5530  160.1437 C.3     1  UNL1        0.1211
      8 N         140.5982  142.7320  160.4965 N.am    1  UNL1       -0.2598
      9 C         140.4389  143.8618  159.5227 C.2     1  UNL1        0.3041
     10 O         139.5812  145.0407  159.8754 O.2     1  UNL1       -0.2526
     11 N         141.1372  143.8125  158.1961 N.am    1  UNL1       -0.2919
     12 C         139.8998  142.7813  161.8231 C.3     1  UNL1        0.0999
     13 C         140.0590  141.6516  162.7969 C.3     1  UNL1        0.0476
     14 H         141.7001  143.0387  157.9645 H       1  UNL1        0.1508
     15 C         140.3776  139.3921  164.7446 C.ar    1  UNL1        0.0027
     16 C         138.9495  138.9469  164.8574 C.ar    1  UNL1        0.0002
     17 C         138.2512  138.9962  166.1840 C.ar    1  UNL1        0.0031
     18 C         138.9808  139.4906  167.3978 C.ar    1  UNL1        0.0372
     19 C         140.4088  139.9358  167.2850 C.ar    1  UNL1        0.1468
     20 C         141.1071  139.8865  165.9584 C.ar    1  UNL1        0.0372
     21 O         141.1384  140.4302  168.4987 O.3     1  UNL1       -0.4045
     22 C         141.8908  139.4653  169.3664 C.3     1  UNL1        0.5753
     23 F         142.6431  138.5003  170.2341 F       1  UNL1       -0.1328
     24 F         143.0678  139.5505  168.4405 F       1  UNL1       -0.1328
     25 F         140.7137  139.3801  170.2923 F       1  UNL1       -0.1328
     26 C         140.9780  144.9422  157.2222 C.3     1  UNL1        0.0583
     27 C         139.7896  144.2543  156.6186 C.3     1  UNL1        0.0197
     28 C         142.1664  145.6301  157.8259 C.3     1  UNL1        0.0197
     29 C         140.8188  146.0720  156.2484 C.3     1  UNL1        0.0197
     30 C         143.1711  139.1950  159.4382 C.3     1  UNL1        0.1161
     31 C         141.9446  138.0662  157.4454 C.2     1  UNL1        0.2227
     32 O         141.1055  139.2963  157.2650 O.2     1  UNL1       -0.2751
     33 N         142.9774  138.0155  158.5320 N.am    1  UNL1       -0.3004
     34 H         143.5281  137.2081  158.6505 H       1  UNL1        0.1497
     35 C         141.9994  135.4434  156.2144 C.3     1  UNL1        0.0883
     36 C         141.1671  136.2867  155.2945 C.3     1  UNL1        0.0194
     37 C         141.7509  136.8866  156.5392 C.3     1  UNL1        0.0858
     38 C         145.3902  131.7974  157.9721 C.3     1  UNL1        0.0773
     39 C         144.1820  132.4474  157.3659 C.ar    1  UNL1        0.1809
     40 N         142.9851  131.7364  156.8074 N.ar    1  UNL1       -0.0606
     41 O         142.0218  132.7721  156.3080 O.2     1  UNL1       -0.3374
     42 C         142.6233  134.1233  156.5579 C.ar    1  UNL1        0.2363
     43 N         143.9583  133.9226  157.2117 N.ar    1  UNL1       -0.1949
@<TRIPOS>BOND
     1    38    39    1
     2    39    40   ar
     3    40    41   ar
     4    41    42   ar
     5    35    42    1
     6    35    36    1
     7    36    37    1
     8    37    31    1
     9    31    32    2
    10    31    33   am
    11    33    30    1
    12    30     1    1
    13     1     2   ar
    14     2     3   ar
    15     3     4   ar
    16     4    15    1
    17    15    16   ar
    18    16    17   ar
    19    17    18   ar
    20    18    19   ar
    21    19    21    1
    22    21    22    1
    23    22    23    1
    24    22    24    1
    25    22    25    1
    26    19    20   ar
    27     4     5   ar
    28     5     6   ar
    29     6     7    1
    30     7     8    1
    31     8     9   am
    32     9    10    2
    33     9    11   am
    34    11    26    1
    35    26    27    1
    36    26    28    1
    37    26    29    1
    38     8    12    1
    39    12    13    1
    40    42    43   ar
    41    43    39   ar
    42    37    35    1
    43     6     1   ar
    44    20    15   ar
    45    13     5    1
    46    33    34    1
    47    11    14    1
@<TRIPOS>MOLECULE
*****
 43 47 0 0 0
SMALL
GASTEIGER

@<TRIPOS>ATOM
      1 C         140.4304  144.4345  162.0087 C.ar    1  UNL1       -0.0052
      2 C         139.4949  144.7684  163.1326 C.ar    1  UNL1       -0.0029
      3 C         139.1344  143.7215  164.1446 C.ar    1  UNL1       -0.0006
      4 C         139.7095  142.3407  164.0326 C.ar    1  UNL1       -0.0041
      5 C         140.6450  142.0067  162.9087 C.ar    1  UNL1       -0.0231
      6 C         141.0055  143.0536  161.8967 C.ar    1  UNL1       -0.0085
      7 C         141.9410  142.7196  160.7728 C.3     1  UNL1        0.1211
      8 N         142.5160  141.3388  160.6608 N.am    1  UNL1       -0.2598
      9 C         143.4516  141.0047  159.5369 C.2     1  UNL1        0.3041
     10 O         144.0267  139.6239  159.4249 O.2     1  UNL1       -0.2526
     11 N         143.8121  142.0516  158.5249 N.am    1  UNL1       -0.2919
     12 C         142.1556  140.2919  161.6728 C.3     1  UNL1        0.0999
     13 C         141.2201  140.6259  162.7967 C.3     1  UNL1        0.0476
     14 H         143.4347  142.9579  158.5984 H       1  UNL1        0.1508
     15 C         139.3490  141.2938  165.0446 C.ar    1  UNL1        0.0027
     16 C         138.3972  140.1935  164.6790 C.ar    1  UNL1        0.0002
     17 C         138.0367  139.1467  165.6910 C.ar    1  UNL1        0.0031
     18 C         138.6280  139.2001  167.0686 C.ar    1  UNL1        0.0372
     19 C         139.5798  140.3003  167.4341 C.ar    1  UNL1        0.1468
     20 C         139.9402  141.3472  166.4221 C.ar    1  UNL1        0.0372
     21 O         140.1711  140.3537  168.8116 O.3     1  UNL1       -0.4045
     22 C         139.7880  141.4596  169.7499 C.3     1  UNL1        0.5753
     23 F         139.4049  142.5655  170.6881 F       1  UNL1       -0.1328
     24 F         141.0904  142.1488  169.4693 F       1  UNL1       -0.1328
     25 F         138.4855  140.7704  170.0304 F       1  UNL1       -0.1328
     26 C         144.7476  141.7177  157.4010 C.3     1  UNL1        0.0583
     27 C         143.6412  140.9902  156.6962 C.3     1  UNL1        0.0197
     28 C         145.8540  142.4452  158.1057 C.3     1  UNL1        0.0197
     29 C         145.6832  141.3837  156.2770 C.3     1  UNL1        0.0197
     30 C         140.7909  145.4813  160.9967 C.3     1  UNL1        0.1161
     31 C         140.7372  145.7518  158.4133 C.2     1  UNL1        0.2227
     32 O         142.2358  145.8117  158.3884 O.2     1  UNL1       -0.2751
     33 N         140.0148  145.5866  159.7174 N.am    1  UNL1       -0.3004
     34 H         139.0312  145.5473  159.7338 H       1  UNL1        0.1497
     35 C         139.4808  146.6710  155.9692 C.3     1  UNL1        0.0883
     36 C         139.0969  145.2255  156.0831 C.3     1  UNL1        0.0194
     37 C         139.9610  145.8571  157.1340 C.3     1  UNL1        0.0858
     38 C         138.5955  151.7418  154.7929 C.3     1  UNL1        0.0773
     39 C         139.0183  150.3063  154.6902 C.ar    1  UNL1        0.1809
     40 N         139.6611  149.6596  153.4991 N.ar    1  UNL1       -0.0606
     41 O         139.9126  148.2191  153.8332 O.2     1  UNL1       -0.3374
     42 C         139.4252  147.9755  155.2308 C.ar    1  UNL1        0.2363
     43 N         138.8725  149.2655  155.7604 N.ar    1  UNL1       -0.1949
@<TRIPOS>BOND
     1    38    39    1
     2    39    40   ar
     3    40    41   ar
     4    41    42   ar
     5    35    42    1
     6    35    36    1
     7    36    37    1
     8    37    31    1
     9    31    32    2
    10    31    33   am
    11    33    30    1
    12    30     1    1
    13     1     2   ar
    14     2     3   ar
    15     3     4   ar
    16     4    15    1
    17    15    16   ar
    18    16    17   ar
    19    17    18   ar
    20    18    19   ar
    21    19    21    1
    22    21    22    1
    23    22    23    1
    24    22    24    1
    25    22    25    1
    26    19    20   ar
    27     4     5   ar
    28     5     6   ar
    29     6     7    1
    30     7     8    1
    31     8     9   am
    32     9    10    2
    33     9    11   am
    34    11    26    1
    35    26    27    1
    36    26    28    1
    37    26    29    1
    38     8    12    1
    39    12    13    1
    40    42    43   ar
    41    43    39   ar
    42    37    35    1
    43     6     1   ar
    44    20    15   ar
    45    13     5    1
    46    33    34    1
    47    11    14    1
@<TRIPOS>MOLECULE
*****
 43 47 0 0 0
SMALL
GASTEIGER

@<TRIPOS>ATOM
      1 C         139.5046  139.0371  161.6621 C.ar    1  UNL1       -0.0052
      2 C         139.1958  137.9487  162.6469 C.ar    1  UNL1       -0.0029
      3 C         139.6918  138.0518  164.0587 C.ar    1  UNL1       -0.0006
      4 C         140.4965  139.2435  164.4858 C.ar    1  UNL1       -0.0041
      5 C         140.8053  140.3320  163.5010 C.ar    1  UNL1       -0.0231
      6 C         140.3093  140.2288  162.0891 C.ar    1  UNL1       -0.0085
      7 C         140.6181  141.3173  161.1043 C.3     1  UNL1        0.1211
      8 N         141.4228  142.5089  161.5314 N.am    1  UNL1       -0.2598
      9 C         141.7316  143.5975  160.5466 C.2     1  UNL1        0.3041
     10 O         142.5363  144.7891  160.9737 O.2     1  UNL1       -0.2526
     11 N         141.2357  143.4943  159.1347 N.am    1  UNL1       -0.2919
     12 C         141.9188  142.6121  162.9433 C.3     1  UNL1        0.0999
     13 C         141.6100  141.5236  163.9281 C.3     1  UNL1        0.0476
     14 H         140.7075  142.7122  158.8544 H       1  UNL1        0.1508
     15 C         140.9924  139.3466  165.8977 C.ar    1  UNL1        0.0027
     16 C         142.4050  138.9634  166.2263 C.ar    1  UNL1        0.0002
     17 C         142.9009  139.0665  167.6382 C.ar    1  UNL1        0.0031
     18 C         141.9843  139.5529  168.7215 C.ar    1  UNL1        0.0372
     19 C         140.5719  139.9361  168.3928 C.ar    1  UNL1        0.1468
     20 C         140.0759  139.8329  166.9809 C.ar    1  UNL1        0.0372
     21 O         139.6553  140.4225  169.4761 O.3     1  UNL1       -0.4045
     22 C         140.1111  141.4974  170.4177 C.3     1  UNL1        0.5753
     23 F         140.5670  142.5724  171.3593 F       1  UNL1       -0.1328
     24 F         139.8526  142.5315  169.3623 F       1  UNL1       -0.1328
     25 F         140.3697  140.4633  171.4730 F       1  UNL1       -0.1328
     26 C         141.5444  144.5828  158.1499 C.3     1  UNL1        0.0583
     27 C         140.2961  145.3069  158.5589 C.3     1  UNL1        0.0197
     28 C         142.7927  143.8586  157.7409 C.3     1  UNL1        0.0197
     29 C         141.8532  145.6713  157.1651 C.3     1  UNL1        0.0197
     30 C         139.0086  138.9340  160.2502 C.3     1  UNL1        0.1161
     31 C         139.6431  138.6950  157.7422 C.2     1  UNL1        0.2227
     32 O         138.5029  139.5949  157.3679 O.2     1  UNL1       -0.2751
     33 N         139.8960  138.3645  159.1833 N.am    1  UNL1       -0.3004
     34 H         140.6443  137.7739  159.4289 H       1  UNL1        0.1497
     35 C         141.3946  137.0121  156.1620 C.3     1  UNL1        0.0883
     36 C         141.2034  138.2525  155.3407 C.3     1  UNL1        0.0194
     37 C         140.5305  138.1255  156.6752 C.3     1  UNL1        0.0858
     38 C         144.5175  133.0849  157.8069 C.3     1  UNL1        0.0773
     39 C         143.4394  133.8478  157.0959 C.ar    1  UNL1        0.1809
     40 N         142.4439  133.2753  156.1310 N.ar    1  UNL1       -0.0606
     41 O         141.5567  134.3908  155.6636 O.2     1  UNL1       -0.3374
     42 C         142.0040  135.6530  156.3398 C.ar    1  UNL1        0.2363
     43 N         143.1675  135.3173  157.2249 N.ar    1  UNL1       -0.1949
@<TRIPOS>BOND
     1    38    39    1
     2    39    40   ar
     3    40    41   ar
     4    41    42   ar
     5    35    42    1
     6    35    36    1
     7    36    37    1
     8    37    31    1
     9    31    32    2
    10    31    33   am
    11    33    30    1
    12    30     1    1
    13     1     2   ar
    14     2     3   ar
    15     3     4   ar
    16     4    15    1
    17    15    16   ar
    18    16    17   ar
    19    17    18   ar
    20    18    19   ar
    21    19    21    1
    22    21    22    1
    23    22    23    1
    24    22    24    1
    25    22    25    1
    26    19    20   ar
    27     4     5   ar
    28     5     6   ar
    29     6     7    1
    30     7     8    1
    31     8     9   am
    32     9    10    2
    33     9    11   am
    34    11    26    1
    35    26    27    1
    36    26    28    1
    37    26    29    1
    38     8    12    1
    39    12    13    1
    40    42    43   ar
    41    43    39   ar
    42    37    35    1
    43     6     1   ar
    44    20    15   ar
    45    13     5    1
    46    33    34    1
    47    11    14    1
@<TRIPOS>MOLECULE
*****
 43 47 0 0 0
SMALL
GASTEIGER

@<TRIPOS>ATOM
      1 C         139.4777  138.7558  161.8282 C.ar    1  UNL1       -0.0052
      2 C         139.0642  137.7236  162.8350 C.ar    1  UNL1       -0.0029
      3 C         139.2613  137.9830  164.2992 C.ar    1  UNL1       -0.0006
      4 C         139.8718  139.2745  164.7566 C.ar    1  UNL1       -0.0041
      5 C         140.2853  140.3067  163.7498 C.ar    1  UNL1       -0.0231
      6 C         140.0883  140.0473  162.2856 C.ar    1  UNL1       -0.0085
      7 C         140.5017  141.0795  161.2788 C.3     1  UNL1        0.1211
      8 N         141.1123  142.3710  161.7362 N.am    1  UNL1       -0.2598
      9 C         141.5258  143.4032  160.7294 C.2     1  UNL1        0.3041
     10 O         142.1363  144.6947  161.1869 O.2     1  UNL1       -0.2526
     11 N         141.3288  143.1439  159.2652 N.am    1  UNL1       -0.2919
     12 C         141.3093  142.6303  163.2005 C.3     1  UNL1        0.0999
     13 C         140.8958  141.5982  164.2072 C.3     1  UNL1        0.0476
     14 H         140.9281  142.2962  158.9650 H       1  UNL1        0.1508
     15 C         140.0688  139.5338  166.2208 C.ar    1  UNL1        0.0027
     16 C         138.8815  139.6202  167.1336 C.ar    1  UNL1        0.0002
     17 C         139.0786  139.8795  168.5978 C.ar    1  UNL1        0.0031
     18 C         140.4628  140.0525  169.1493 C.ar    1  UNL1        0.0372
     19 C         141.6500  139.9661  168.2365 C.ar    1  UNL1        0.1468
     20 C         141.4529  139.7067  166.7723 C.ar    1  UNL1        0.0372
     21 O         143.0342  140.1390  168.7879 O.3     1  UNL1       -0.4045
     22 C         143.3937  141.3901  169.5333 C.3     1  UNL1        0.5753
     23 F         143.7532  142.6412  170.2787 F       1  UNL1       -0.1328
     24 F         143.4172  140.6175  170.8188 F       1  UNL1       -0.1328
     25 F         143.3702  142.1627  168.2478 F       1  UNL1       -0.1328
     26 C         141.7422  144.1760  158.2584 C.3     1  UNL1        0.0583
     27 C         143.1190  143.5821  158.2150 C.3     1  UNL1        0.0197
     28 C         140.3655  144.7699  158.3019 C.3     1  UNL1        0.0197
     29 C         142.1557  145.2082  157.2516 C.3     1  UNL1        0.0197
     30 C         139.2807  138.4964  160.3640 C.3     1  UNL1        0.1161
     31 C         138.9852  139.9551  158.2345 C.2     1  UNL1        0.2227
     32 O         140.3402  139.5276  157.7536 O.2     1  UNL1       -0.2751
     33 N         138.4555  139.4395  159.5396 N.am    1  UNL1       -0.3004
     34 H         137.5661  139.7201  159.8553 H       1  UNL1        0.1497
     35 C         136.8740  141.2292  156.7124 C.3     1  UNL1        0.0883
     36 C         138.0164  142.2007  156.6801 C.3     1  UNL1        0.0194
     37 C         138.1599  140.8982  157.4101 C.3     1  UNL1        0.0858
     38 C         132.1238  138.9241  156.6592 C.3     1  UNL1        0.0773
     39 C         133.2886  139.7998  156.3037 C.ar    1  UNL1        0.1809
     40 N         133.3405  140.7806  155.1701 N.ar    1  UNL1       -0.0606
     41 O         134.6899  141.4355  155.1851 O.2     1  UNL1       -0.3374
     42 C         135.4720  140.8593  156.3282 C.ar    1  UNL1        0.2363
     43 N         134.6059  139.8484  157.0194 N.ar    1  UNL1       -0.1949
@<TRIPOS>BOND
     1    38    39    1
     2    39    40   ar
     3    40    41   ar
     4    41    42   ar
     5    35    42    1
     6    35    36    1
     7    36    37    1
     8    37    31    1
     9    31    32    2
    10    31    33   am
    11    33    30    1
    12    30     1    1
    13     1     2   ar
    14     2     3   ar
    15     3     4   ar
    16     4    15    1
    17    15    16   ar
    18    16    17   ar
    19    17    18   ar
    20    18    19   ar
    21    19    21    1
    22    21    22    1
    23    22    23    1
    24    22    24    1
    25    22    25    1
    26    19    20   ar
    27     4     5   ar
    28     5     6   ar
    29     6     7    1
    30     7     8    1
    31     8     9   am
    32     9    10    2
    33     9    11   am
    34    11    26    1
    35    26    27    1
    36    26    28    1
    37    26    29    1
    38     8    12    1
    39    12    13    1
    40    42    43   ar
    41    43    39   ar
    42    37    35    1
    43     6     1   ar
    44    20    15   ar
    45    13     5    1
    46    33    34    1
    47    11    14    1
@<TRIPOS>MOLECULE
*****
 43 47 0 0 0
SMALL
GASTEIGER

@<TRIPOS>ATOM
      1 C         139.6802  138.9694  161.7151 C.ar    1  UNL1       -0.0052
      2 C         139.3086  137.8745  162.6707 C.ar    1  UNL1       -0.0029
      3 C         139.4588  138.0855  164.1481 C.ar    1  UNL1       -0.0006
      4 C         139.9805  139.3914  164.6700 C.ar    1  UNL1       -0.0041
      5 C         140.3521  140.4864  163.7144 C.ar    1  UNL1       -0.0231
      6 C         140.2019  140.2754  162.2370 C.ar    1  UNL1       -0.0085
      7 C         140.5734  141.3702  161.2814 C.3     1  UNL1        0.1211
      8 N         141.0951  142.6761  161.8033 N.am    1  UNL1       -0.2598
      9 C         141.4667  143.7711  160.8477 C.2     1  UNL1        0.3041
     10 O         141.9884  145.0770  161.3696 O.2     1  UNL1       -0.2526
     11 N         141.3166  143.5600  159.3702 N.am    1  UNL1       -0.2919
     12 C         141.2453  142.8871  163.2807 C.3     1  UNL1        0.0999
     13 C         140.8737  141.7923  164.2363 C.3     1  UNL1        0.0476
     14 H         140.9741  142.7029  159.0277 H       1  UNL1        0.1508
     15 C         140.1306  139.6025  166.1475 C.ar    1  UNL1        0.0027
     16 C         138.9141  139.6763  167.0220 C.ar    1  UNL1        0.0002
     17 C         139.0643  139.8873  168.4995 C.ar    1  UNL1        0.0031
     18 C         140.4309  140.0245  169.1024 C.ar    1  UNL1        0.0372
     19 C         141.6474  139.9507  168.2279 C.ar    1  UNL1        0.1468
     20 C         141.4972  139.7397  166.7504 C.ar    1  UNL1        0.0372
     21 O         143.0140  140.0879  168.8309 O.3     1  UNL1       -0.4045
     22 C         143.3899  141.3444  169.5587 C.3     1  UNL1        0.5753
     23 F         143.7658  142.6010  170.2866 F       1  UNL1       -0.1328
     24 F         143.4059  140.5890  170.8545 F       1  UNL1       -0.1328
     25 F         143.3740  142.0998  168.2629 F       1  UNL1       -0.1328
     26 C         141.6881  144.6549  158.4146 C.3     1  UNL1        0.0583
     27 C         142.9908  143.9668  158.1328 C.3     1  UNL1        0.0197
     28 C         140.3854  145.3430  158.6965 C.3     1  UNL1        0.0197
     29 C         142.0596  145.7499  157.4590 C.3     1  UNL1        0.0197
     30 C         139.5300  138.7583  160.2376 C.3     1  UNL1        0.1161
     31 C         140.5413  138.0383  157.9553 C.2     1  UNL1        0.2227
     32 O         139.1953  138.1897  157.3111 O.2     1  UNL1       -0.2751
     33 N         140.7087  138.3226  159.4186 N.am    1  UNL1       -0.3004
     34 H         141.5922  138.2232  159.8415 H       1  UNL1        0.1497
     35 C         142.5056  136.5141  156.4667 C.3     1  UNL1        0.0883
     36 C         142.9762  137.9361  156.3875 C.3     1  UNL1        0.0194
     37 C         141.7201  137.6025  157.1364 C.3     1  UNL1        0.0858
     38 C         141.5213  131.5402  154.9930 C.3     1  UNL1        0.0773
     39 C         142.2349  132.7784  155.4485 C.ar    1  UNL1        0.1809
     40 N         143.6991  132.8901  155.7543 N.ar    1  UNL1       -0.0606
     41 O         143.9788  134.3031  156.1730 O.2     1  UNL1       -0.3374
     42 C         142.6873  135.0647  156.1259 C.ar    1  UNL1        0.2363
     43 N         141.6096  134.1224  155.6782 N.ar    1  UNL1       -0.1949
@<TRIPOS>BOND
     1    38    39    1
     2    39    40   ar
     3    40    41   ar
     4    41    42   ar
     5    35    42    1
     6    35    36    1
     7    36    37    1
     8    37    31    1
     9    31    32    2
    10    31    33   am
    11    33    30    1
    12    30     1    1
    13     1     2   ar
    14     2     3   ar
    15     3     4   ar
    16     4    15    1
    17    15    16   ar
    18    16    17   ar
    19    17    18   ar
    20    18    19   ar
    21    19    21    1
    22    21    22    1
    23    22    23    1
    24    22    24    1
    25    22    25    1
    26    19    20   ar
    27     4     5   ar
    28     5     6   ar
    29     6     7    1
    30     7     8    1
    31     8     9   am
    32     9    10    2
    33     9    11   am
    34    11    26    1
    35    26    27    1
    36    26    28    1
    37    26    29    1
    38     8    12    1
    39    12    13    1
    40    42    43   ar
    41    43    39   ar
    42    37    35    1
    43     6     1   ar
    44    20    15   ar
    45    13     5    1
    46    33    34    1
    47    11    14    1
@<TRIPOS>MOLECULE
*****
 43 47 0 0 0
SMALL
GASTEIGER

@<TRIPOS>ATOM
      1 C         138.7004  142.0450  160.6657 C.ar    1  UNL1       -0.0052
      2 C         137.8941  142.7328  161.7272 C.ar    1  UNL1       -0.0029
      3 C         137.9781  142.2691  163.1512 C.ar    1  UNL1       -0.0006
      4 C         138.8683  141.1175  163.5138 C.ar    1  UNL1       -0.0041
      5 C         139.6746  140.4297  162.4522 C.ar    1  UNL1       -0.0231
      6 C         139.5907  140.8934  161.0282 C.ar    1  UNL1       -0.0085
      7 C         140.3969  140.2056  159.9667 C.3     1  UNL1        0.1211
      8 N         141.2871  139.0541  160.3292 N.am    1  UNL1       -0.2598
      9 C         142.0935  138.3662  159.2677 C.2     1  UNL1        0.3041
     10 O         142.9837  137.2147  159.6302 O.2     1  UNL1       -0.2526
     11 N         142.0095  138.8300  157.8436 N.am    1  UNL1       -0.2919
     12 C         141.3711  138.5904  161.7533 C.3     1  UNL1        0.0999
     13 C         140.5648  139.2781  162.8148 C.3     1  UNL1        0.0476
     14 H         141.4252  139.5858  157.6057 H       1  UNL1        0.1508
     15 C         138.9522  140.6538  164.9378 C.ar    1  UNL1        0.0027
     16 C         138.1711  139.4530  165.3828 C.ar    1  UNL1        0.0002
     17 C         138.2551  138.9892  166.8069 C.ar    1  UNL1        0.0031
     18 C         139.1201  139.7263  167.7859 C.ar    1  UNL1        0.0372
     19 C         139.9012  140.9270  167.3409 C.ar    1  UNL1        0.1468
     20 C         139.8173  141.3908  165.9168 C.ar    1  UNL1        0.0372
     21 O         140.7663  141.6641  168.3199 O.3     1  UNL1       -0.4045
     22 C         140.7086  141.3203  169.7788 C.3     1  UNL1        0.5753
     23 F         140.6510  140.9764  171.2377 F       1  UNL1       -0.1328
     24 F         141.8751  140.3931  169.6064 F       1  UNL1       -0.1328
     25 F         139.5422  142.2475  169.9513 F       1  UNL1       -0.1328
     26 C         142.8158  138.1422  156.7821 C.3     1  UNL1        0.0583
     27 C         141.8240  137.0172  156.7578 C.3     1  UNL1        0.0197
     28 C         143.8075  139.2672  156.8065 C.3     1  UNL1        0.0197
     29 C         143.6221  137.4544  155.7206 C.3     1  UNL1        0.0197
     30 C         138.6165  142.5087  159.2416 C.3     1  UNL1        0.1161
     31 C         137.4269  142.4583  156.9325 C.2     1  UNL1        0.2227
     32 O         138.2542  143.6252  156.4808 O.2     1  UNL1       -0.2751
     33 N         137.6081  141.9001  158.3129 N.am    1  UNL1       -0.3004
     34 H         137.0651  141.1342  158.6093 H       1  UNL1        0.1497
     35 C         135.1642  141.0557  155.7878 C.3     1  UNL1        0.0883
     36 C         135.9260  141.5893  154.6110 C.3     1  UNL1        0.0194
     37 C         136.4184  141.8496  156.0037 C.3     1  UNL1        0.0858
     38 C         130.2743  139.7301  157.2749 C.3     1  UNL1        0.0773
     39 C         131.7526  139.6800  157.0262 C.ar    1  UNL1        0.1809
     40 N         132.6658  138.5397  157.3667 N.ar    1  UNL1       -0.0606
     41 O         134.0550  138.9162  156.9443 O.2     1  UNL1       -0.3374
     42 C         134.0003  140.2893  156.3426 C.ar    1  UNL1        0.2363
     43 N         132.5774  140.7612  156.3933 N.ar    1  UNL1       -0.1949
@<TRIPOS>BOND
     1    38    39    1
     2    39    40   ar
     3    40    41   ar
     4    41    42   ar
     5    35    42    1
     6    35    36    1
     7    36    37    1
     8    37    31    1
     9    31    32    2
    10    31    33   am
    11    33    30    1
    12    30     1    1
    13     1     2   ar
    14     2     3   ar
    15     3     4   ar
    16     4    15    1
    17    15    16   ar
    18    16    17   ar
    19    17    18   ar
    20    18    19   ar
    21    19    21    1
    22    21    22    1
    23    22    23    1
    24    22    24    1
    25    22    25    1
    26    19    20   ar
    27     4     5   ar
    28     5     6   ar
    29     6     7    1
    30     7     8    1
    31     8     9   am
    32     9    10    2
    33     9    11   am
    34    11    26    1
    35    26    27    1
    36    26    28    1
    37    26    29    1
    38     8    12    1
    39    12    13    1
    40    42    43   ar
    41    43    39   ar
    42    37    35    1
    43     6     1   ar
    44    20    15   ar
    45    13     5    1
    46    33    34    1
    47    11    14    1
@<TRIPOS>MOLECULE
*****
 43 47 0 0 0
SMALL
GASTEIGER

@<TRIPOS>ATOM
      1 C         138.6462  140.1292  163.2305 C.ar    1  UNL1       -0.0052
      2 C         138.2172  139.2423  164.3615 C.ar    1  UNL1       -0.0029
      3 C         138.9920  139.2370  165.6459 C.ar    1  UNL1       -0.0006
      4 C         140.1958  140.1186  165.7992 C.ar    1  UNL1       -0.0041
      5 C         140.6249  141.0056  164.6682 C.ar    1  UNL1       -0.0231
      6 C         139.8500  141.0109  163.3838 C.ar    1  UNL1       -0.0085
      7 C         140.2790  141.8978  162.2527 C.3     1  UNL1        0.1211
      8 N         141.4828  142.7795  162.4061 N.am    1  UNL1       -0.2598
      9 C         141.9118  143.6665  161.2750 C.2     1  UNL1        0.3041
     10 O         143.1156  144.5481  161.4283 O.2     1  UNL1       -0.2526
     11 N         141.1370  143.6718  159.9906 N.am    1  UNL1       -0.2919
     12 C         142.2576  142.7742  163.6905 C.3     1  UNL1        0.0999
     13 C         141.8286  141.8873  164.8215 C.3     1  UNL1        0.0476
     14 H         140.3469  143.0931  159.8900 H       1  UNL1        0.1508
     15 C         140.9706  140.1133  167.0836 C.ar    1  UNL1        0.0027
     16 C         142.1480  139.1980  167.2455 C.ar    1  UNL1        0.0002
     17 C         142.9228  139.1927  168.5299 C.ar    1  UNL1        0.0031
     18 C         142.5203  140.1028  169.6524 C.ar    1  UNL1        0.0372
     19 C         141.3430  141.0181  169.4904 C.ar    1  UNL1        0.1468
     20 C         140.5682  141.0233  168.2060 C.ar    1  UNL1        0.0372
     21 O         140.9405  141.9281  170.6129 O.3     1  UNL1       -0.4045
     22 C         140.5479  143.3467  170.3242 C.3     1  UNL1        0.5753
     23 F         140.1552  144.7654  170.0355 F       1  UNL1       -0.1328
     24 F         141.9545  143.6499  169.9007 F       1  UNL1       -0.1328
     25 F         139.1412  143.0436  170.7477 F       1  UNL1       -0.1328
     26 C         141.5660  144.5587  158.8596 C.3     1  UNL1        0.0583
     27 C         142.5531  143.5189  158.4186 C.3     1  UNL1        0.0197
     28 C         140.5789  145.5984  159.3006 C.3     1  UNL1        0.0197
     29 C         141.9949  145.4457  157.7285 C.3     1  UNL1        0.0197
     30 C         137.8714  140.1345  161.9461 C.3     1  UNL1        0.1161
     31 C         139.4394  138.6990  160.4525 C.2     1  UNL1        0.2227
     32 O         139.5918  137.7062  161.5666 O.2     1  UNL1       -0.2751
     33 N         138.5792  139.9131  160.6423 N.am    1  UNL1       -0.3004
     34 H         138.4792  140.5646  159.9110 H       1  UNL1        0.1497
     35 C         140.1022  138.3003  157.6599 C.3     1  UNL1        0.0883
     36 C         141.4182  138.2715  158.3791 C.3     1  UNL1        0.0194
     37 C         140.1472  138.4776  159.1486 C.3     1  UNL1        0.0858
     38 C         137.8988  139.5446  153.0255 C.3     1  UNL1        0.0773
     39 C         138.3036  138.7865  154.2548 C.ar    1  UNL1        0.1809
     40 N         137.9107  137.3786  154.5917 N.ar    1  UNL1       -0.0606
     41 O         138.5366  137.0251  155.9083 O.2     1  UNL1       -0.3374
     42 C         139.3164  138.2145  156.3851 C.ar    1  UNL1        0.2363
     43 N         139.1724  139.3031  155.3632 N.ar    1  UNL1       -0.1949
@<TRIPOS>BOND
     1    38    39    1
     2    39    40   ar
     3    40    41   ar
     4    41    42   ar
     5    35    42    1
     6    35    36    1
     7    36    37    1
     8    37    31    1
     9    31    32    2
    10    31    33   am
    11    33    30    1
    12    30     1    1
    13     1     2   ar
    14     2     3   ar
    15     3     4   ar
    16     4    15    1
    17    15    16   ar
    18    16    17   ar
    19    17    18   ar
    20    18    19   ar
    21    19    21    1
    22    21    22    1
    23    22    23    1
    24    22    24    1
    25    22    25    1
    26    19    20   ar
    27     4     5   ar
    28     5     6   ar
    29     6     7    1
    30     7     8    1
    31     8     9   am
    32     9    10    2
    33     9    11   am
    34    11    26    1
    35    26    27    1
    36    26    28    1
    37    26    29    1
    38     8    12    1
    39    12    13    1
    40    42    43   ar
    41    43    39   ar
    42    37    35    1
    43     6     1   ar
    44    20    15   ar
    45    13     5    1
    46    33    34    1
    47    11    14    1
