@<TRIPOS>MOLECULE
*****
 28 32 0 0 0
SMALL
GASTEIGER

@<TRIPOS>ATOM
      1 C         141.3455  141.0479  170.5506 C.3     1  UNL1        0.0475
      2 C         140.8713  141.0955  169.1283 C.3     1  UNL1        0.1727
      3 O         141.4778  142.0753  168.1679 O.3     1  UNL1       -0.4792
      4 C         141.0037  142.1229  166.7457 C.ar    1  UNL1        0.1362
      5 C         141.6102  143.1026  165.7853 C.ar    1  UNL1        0.0366
      6 C         141.1361  143.1502  164.3630 C.ar    1  UNL1        0.0032
      7 C         140.0555  142.2181  163.9010 C.ar    1  UNL1        0.0036
      8 C         139.4490  141.2383  164.8614 C.ar    1  UNL1        0.0008
      9 C         139.9231  141.1907  166.2837 C.ar    1  UNL1        0.0357
     10 C         139.3167  140.2110  167.2441 C.3     1  UNL1        0.1582
     11 C         138.7433  140.1429  165.8596 C.3     1  UNL1        0.2351
     12 O         137.6919  139.0730  165.8454 O.2     1  UNL1       -0.4478
     13 C         137.6155  138.4799  167.2210 C.2     1  UNL1        0.2770
     14 N         136.6964  137.3772  167.6559 N.pl3   1  UNL1       -0.3133
     15 N         138.6197  139.1832  168.0855 N.2     1  UNL1       -0.2202
     16 C         139.7907  140.1634  168.6664 C.3     1  UNL1        0.1174
     17 C         139.9600  140.4367  168.3984 C.3     1  UNL1        0.1502
     18 O         139.7821  140.1494  168.6801 O.3     1  UNL1       -0.3532
     19 C         139.9600  140.4367  168.3984 C.3     1  UNL1        0.1502
     20 H         136.0688  136.9766  167.0116 H       1  UNL1        0.1466
     21 H         136.7206  137.0540  168.5855 H       1  UNL1        0.1466
     22 C         139.5814  142.2657  162.4788 C.ar    1  UNL1        0.0460
     23 C         140.4304  141.6880  161.3854 C.ar    1  UNL1        0.0054
     24 C         139.9563  141.7356  159.9631 C.ar    1  UNL1        0.0208
     25 C         138.6332  142.3609  159.6341 C.ar    1  UNL1        0.1013
     26 N         137.7841  142.9385  160.7274 N.ar    1  UNL1       -0.2165
     27 C         138.2582  142.8909  162.1498 C.ar    1  UNL1        0.2222
     28 F         137.4091  143.4686  163.2431 F       1  UNL1       -0.1832
@<TRIPOS>BOND
     1     2     1    1
     2     2     3    1
     3     3     4    1
     4     4     5   ar
     5     5     6   ar
     6     6     7   ar
     7     7    22    1
     8    22    23   ar
     9    23    24   ar
    10    24    25   ar
    11    25    26   ar
    12    26    27   ar
    13    27    28    1
    14     7     8   ar
    15     8     9   ar
    16     9    10    1
    17    10    11    1
    18    11    12    1
    19    12    13    1
    20    13    14    1
    21    13    15    2
    22    10    16    1
    23    16    17    1
    24    17    18    1
    25    18    19    1
    26    16     2    1
    27     9     4   ar
    28    15    10    1
    29    19    16    1
    30    27    22   ar
    31    14    20    1
    32    14    21    1
@<TRIPOS>MOLECULE
*****
 28 32 0 0 0
SMALL
GASTEIGER

@<TRIPOS>ATOM
      1 C         142.9936  138.0456  170.4395 C.3     1  UNL1        0.0475
      2 C         142.5748  139.1280  169.4891 C.3     1  UNL1        0.1727
      3 O         143.0442  139.0983  168.0648 O.3     1  UNL1       -0.4792
      4 C         142.6255  140.1806  167.1144 C.ar    1  UNL1        0.1362
      5 C         143.0949  140.1510  165.6901 C.ar    1  UNL1        0.0366
      6 C         142.6762  141.2333  164.7397 C.ar    1  UNL1        0.0032
      7 C         141.7880  142.3453  165.2137 C.ar    1  UNL1        0.0036
      8 C         141.3186  142.3750  166.6381 C.ar    1  UNL1        0.0008
      9 C         141.7374  141.2926  167.5884 C.ar    1  UNL1        0.0357
     10 C         141.2679  141.3222  169.0128 C.3     1  UNL1        0.1582
     11 C         140.7695  142.4676  168.1822 C.3     1  UNL1        0.2351
     12 O         139.9157  143.3373  169.0567 O.2     1  UNL1       -0.4478
     13 C         139.8865  142.7296  170.4277 C.2     1  UNL1        0.2770
     14 N         139.1507  143.2719  171.6170 N.pl3   1  UNL1       -0.3133
     15 N         140.7222  141.4841  170.4006 N.2     1  UNL1       -0.2202
     16 C         141.6867  140.2399  169.9631 C.3     1  UNL1        0.1174
     17 C         141.8176  140.2316  169.5657 C.3     1  UNL1        0.1502
     18 O         141.6800  140.2403  169.9835 O.3     1  UNL1       -0.3532
     19 C         141.8176  140.2316  169.5657 C.3     1  UNL1        0.1502
     20 H         138.6260  144.1009  171.5352 H       1  UNL1        0.1466
     21 H         139.1926  142.7989  172.4794 H       1  UNL1        0.1466
     22 C         141.3693  143.4277  164.2634 C.ar    1  UNL1        0.0460
     23 C         139.9719  143.4479  163.7184 C.ar    1  UNL1        0.0054
     24 C         139.5532  144.5303  162.7680 C.ar    1  UNL1        0.0208
     25 C         140.5318  145.5923  162.3626 C.ar    1  UNL1        0.1013
     26 N         141.9291  145.5721  162.9075 N.ar    1  UNL1       -0.2165
     27 C         142.3479  144.4897  163.8579 C.ar    1  UNL1        0.2222
     28 F         143.7452  144.4695  164.4029 F       1  UNL1       -0.1832
@<TRIPOS>BOND
     1     2     1    1
     2     2     3    1
     3     3     4    1
     4     4     5   ar
     5     5     6   ar
     6     6     7   ar
     7     7    22    1
     8    22    23   ar
     9    23    24   ar
    10    24    25   ar
    11    25    26   ar
    12    26    27   ar
    13    27    28    1
    14     7     8   ar
    15     8     9   ar
    16     9    10    1
    17    10    11    1
    18    11    12    1
    19    12    13    1
    20    13    14    1
    21    13    15    2
    22    10    16    1
    23    16    17    1
    24    17    18    1
    25    18    19    1
    26    16     2    1
    27     9     4   ar
    28    15    10    1
    29    19    16    1
    30    27    22   ar
    31    14    20    1
    32    14    21    1
@<TRIPOS>MOLECULE
*****
 28 32 0 0 0
SMALL
GASTEIGER

@<TRIPOS>ATOM
      1 C         136.9642  139.4557  170.8805 C.3     1  UNL1        0.0475
      2 C         138.0235  139.6886  169.8443 C.3     1  UNL1        0.1727
      3 O         137.8767  139.0944  168.4748 O.3     1  UNL1       -0.4792
      4 C         138.9359  139.3273  167.4387 C.ar    1  UNL1        0.1362
      5 C         138.7891  138.7332  166.0692 C.ar    1  UNL1        0.0366
      6 C         139.8483  138.9661  165.0331 C.ar    1  UNL1        0.0032
      7 C         141.0546  139.7932  165.3664 C.ar    1  UNL1        0.0036
      8 C         141.2014  140.3873  166.7358 C.ar    1  UNL1        0.0008
      9 C         140.1421  140.1544  167.7720 C.ar    1  UNL1        0.0357
     10 C         140.2890  140.7485  169.1415 C.3     1  UNL1        0.1582
     11 C         141.4242  141.0660  168.2137 C.3     1  UNL1        0.2351
     12 O         142.4086  141.9170  168.9600 O.2     1  UNL1       -0.4478
     13 C         141.8818  142.1256  170.3488 C.2     1  UNL1        0.2770
     14 N         142.5479  142.9173  171.4348 N.pl3   1  UNL1       -0.3133
     15 N         140.5718  141.4034  170.4610 N.2     1  UNL1       -0.2202
     16 C         139.2297  140.5156  170.1776 C.3     1  UNL1        0.1174
     17 C         139.1887  140.3499  169.7955 C.3     1  UNL1        0.1502
     18 O         139.2318  140.5241  170.1971 O.3     1  UNL1       -0.3532
     19 C         139.1887  140.3499  169.7955 C.3     1  UNL1        0.1502
     20 H         143.4118  143.3575  171.2639 H       1  UNL1        0.1466
     21 H         142.1213  142.9967  172.3185 H       1  UNL1        0.1466
     22 C         142.1138  140.0261  164.3302 C.ar    1  UNL1        0.0460
     23 C         141.8444  140.9449  163.1756 C.ar    1  UNL1        0.0054
     24 C         142.9037  141.1778  162.1394 C.ar    1  UNL1        0.0208
     25 C         144.2324  140.4919  162.2578 C.ar    1  UNL1        0.1013
     26 N         144.5019  139.5731  163.4124 N.ar    1  UNL1       -0.2165
     27 C         143.4426  139.3401  164.4487 C.ar    1  UNL1        0.2222
     28 F         143.7120  138.4213  165.6033 F       1  UNL1       -0.1832
@<TRIPOS>BOND
     1     2     1    1
     2     2     3    1
     3     3     4    1
     4     4     5   ar
     5     5     6   ar
     6     6     7   ar
     7     7    22    1
     8    22    23   ar
     9    23    24   ar
    10    24    25   ar
    11    25    26   ar
    12    26    27   ar
    13    27    28    1
    14     7     8   ar
    15     8     9   ar
    16     9    10    1
    17    10    11    1
    18    11    12    1
    19    12    13    1
    20    13    14    1
    21    13    15    2
    22    10    16    1
    23    16    17    1
    24    17    18    1
    25    18    19    1
    26    16     2    1
    27     9     4   ar
    28    15    10    1
    29    19    16    1
    30    27    22   ar
    31    14    20    1
    32    14    21    1
@<TRIPOS>MOLECULE
*****
 28 32 0 0 0
SMALL
GASTEIGER

@<TRIPOS>ATOM
      1 C         137.3520  139.9699  160.6305 C.3     1  UNL1        0.0475
      2 C         137.9003  140.4004  161.9587 C.3     1  UNL1        0.1727
      3 O         137.9871  139.4175  163.0885 O.3     1  UNL1       -0.4792
      4 C         138.5354  139.8479  164.4167 C.ar    1  UNL1        0.1362
      5 C         138.6221  138.8650  165.5464 C.ar    1  UNL1        0.0366
      6 C         139.1704  139.2954  166.8746 C.ar    1  UNL1        0.0032
      7 C         139.6320  140.7088  167.0730 C.ar    1  UNL1        0.0036
      8 C         139.5452  141.6918  165.9433 C.ar    1  UNL1        0.0008
      9 C         138.9969  141.2613  164.6151 C.ar    1  UNL1        0.0357
     10 C         138.9101  142.2442  163.4853 C.3     1  UNL1        0.1582
     11 C         139.4781  142.8170  164.7501 C.3     1  UNL1        0.2351
     12 O         139.8037  144.2598  164.5002 O.2     1  UNL1       -0.4478
     13 C         139.4370  144.5787  163.0811 C.2     1  UNL1        0.2770
     14 N         139.5949  145.9096  162.4076 N.pl3   1  UNL1       -0.3133
     15 N         138.8848  143.3330  162.4539 N.2     1  UNL1       -0.2202
     16 C         138.3618  141.8138  162.1571 C.3     1  UNL1        0.1174
     17 C         138.3860  141.5395  162.4723 C.3     1  UNL1        0.1502
     18 O         138.3606  141.8278  162.1410 O.3     1  UNL1       -0.3532
     19 C         138.3860  141.5395  162.4723 C.3     1  UNL1        0.1502
     20 H         139.9695  146.6719  162.9054 H       1  UNL1        0.1466
     21 H         139.3239  146.0209  161.4676 H       1  UNL1        0.1466
     22 C         140.1803  141.1393  168.4012 C.ar    1  UNL1        0.0460
     23 C         141.4503  141.9349  168.4661 C.ar    1  UNL1        0.0054
     24 C         141.9986  142.3653  169.7943 C.ar    1  UNL1        0.0208
     25 C         141.2769  142.0002  171.0576 C.ar    1  UNL1        0.1013
     26 N         140.0070  141.2046  170.9927 N.ar    1  UNL1       -0.2165
     27 C         139.4586  140.7741  169.6645 C.ar    1  UNL1        0.2222
     28 F         138.1887  139.9785  169.5996 F       1  UNL1       -0.1832
@<TRIPOS>BOND
     1     2     1    1
     2     2     3    1
     3     3     4    1
     4     4     5   ar
     5     5     6   ar
     6     6     7   ar
     7     7    22    1
     8    22    23   ar
     9    23    24   ar
    10    24    25   ar
    11    25    26   ar
    12    26    27   ar
    13    27    28    1
    14     7     8   ar
    15     8     9   ar
    16     9    10    1
    17    10    11    1
    18    11    12    1
    19    12    13    1
    20    13    14    1
    21    13    15    2
    22    10    16    1
    23    16    17    1
    24    17    18    1
    25    18    19    1
    26    16     2    1
    27     9     4   ar
    28    15    10    1
    29    19    16    1
    30    27    22   ar
    31    14    20    1
    32    14    21    1
@<TRIPOS>MOLECULE
*****
 28 32 0 0 0
SMALL
GASTEIGER

@<TRIPOS>ATOM
      1 C         144.8520  142.8721  170.3311 C.3     1  UNL1        0.0475
      2 C         143.7799  142.4259  169.3815 C.3     1  UNL1        0.1727
      3 O         143.8325  142.8428  167.9416 O.3     1  UNL1       -0.4792
      4 C         142.7605  142.3967  166.9920 C.ar    1  UNL1        0.1362
      5 C         142.8130  142.8137  165.5521 C.ar    1  UNL1        0.0366
      6 C         141.7411  142.3675  164.6025 C.ar    1  UNL1        0.0032
      7 C         140.6165  141.5043  165.0928 C.ar    1  UNL1        0.0036
      8 C         140.5640  141.0874  166.5327 C.ar    1  UNL1        0.0008
      9 C         141.6360  141.5336  167.4823 C.ar    1  UNL1        0.0357
     10 C         141.5835  141.1166  168.9222 C.3     1  UNL1        0.1582
     11 C         140.4463  140.5955  168.0943 C.3     1  UNL1        0.2351
     12 O         139.5586  139.7798  168.9870 O.2     1  UNL1       -0.4478
     13 C         140.1472  139.7967  170.3666 C.2     1  UNL1        0.2770
     14 N         139.5834  139.1083  171.5741 N.pl3   1  UNL1       -0.3133
     15 N         141.3987  140.6228  170.3266 N.2     1  UNL1       -0.2202
     16 C         142.6554  141.5627  169.8718 C.3     1  UNL1        0.1174
     17 C         142.6701  141.6791  169.4701 C.3     1  UNL1        0.1502
     18 O         142.6547  141.5568  169.8924 O.3     1  UNL1       -0.3532
     19 C         142.6701  141.6791  169.4701 C.3     1  UNL1        0.1502
     20 H         138.7521  138.5863  171.4998 H       1  UNL1        0.1466
     21 H         140.0448  139.1785  172.4410 H       1  UNL1        0.1466
     22 C         139.5445  141.0582  164.1432 C.ar    1  UNL1        0.0460
     23 C         139.7066  139.7792  163.3764 C.ar    1  UNL1        0.0054
     24 C         138.6347  139.3330  162.4268 C.ar    1  UNL1        0.0208
     25 C         137.4006  140.1658  162.2439 C.ar    1  UNL1        0.1013
     26 N         137.2384  141.4448  163.0107 N.ar    1  UNL1       -0.2165
     27 C         138.3104  141.8910  163.9603 C.ar    1  UNL1        0.2222
     28 F         138.1483  143.1699  164.7271 F       1  UNL1       -0.1832
@<TRIPOS>BOND
     1     2     1    1
     2     2     3    1
     3     3     4    1
     4     4     5   ar
     5     5     6   ar
     6     6     7   ar
     7     7    22    1
     8    22    23   ar
     9    23    24   ar
    10    24    25   ar
    11    25    26   ar
    12    26    27   ar
    13    27    28    1
    14     7     8   ar
    15     8     9   ar
    16     9    10    1
    17    10    11    1
    18    11    12    1
    19    12    13    1
    20    13    14    1
    21    13    15    2
    22    10    16    1
    23    16    17    1
    24    17    18    1
    25    18    19    1
    26    16     2    1
    27     9     4   ar
    28    15    10    1
    29    19    16    1
    30    27    22   ar
    31    14    20    1
    32    14    21    1
@<TRIPOS>MOLECULE
*****
 28 32 0 0 0
SMALL
GASTEIGER

@<TRIPOS>ATOM
      1 C         141.9757  141.1765  171.0467 C.3     1  UNL1        0.0475
      2 C         141.5110  141.0422  169.6268 C.3     1  UNL1        0.1727
      3 O         140.2636  140.2692  169.3159 O.3     1  UNL1       -0.4792
      4 C         139.7989  140.1348  167.8961 C.ar    1  UNL1        0.1362
      5 C         138.5515  139.3619  167.5852 C.ar    1  UNL1        0.0366
      6 C         138.0868  139.2275  166.1654 C.ar    1  UNL1        0.0032
      7 C         138.8693  139.8661  165.0564 C.ar    1  UNL1        0.0036
      8 C         140.1167  140.6391  165.3673 C.ar    1  UNL1        0.0008
      9 C         140.5814  140.7734  166.7872 C.ar    1  UNL1        0.0357
     10 C         141.8288  141.5464  167.0981 C.3     1  UNL1        0.1582
     11 C         141.4891  141.4980  165.6378 C.3     1  UNL1        0.2351
     12 O         142.5389  142.2673  164.8920 O.2     1  UNL1       -0.4478
     13 C         143.5273  142.7911  165.8912 C.2     1  UNL1        0.2770
     14 N         144.7415  143.6156  165.5814 N.pl3   1  UNL1       -0.3133
     15 N         143.0885  142.3456  167.2547 N.2     1  UNL1       -0.2202
     16 C         142.2935  141.6808  168.5179 C.3     1  UNL1        0.1174
     17 C         141.9455  141.4651  168.4312 C.3     1  UNL1        0.1502
     18 O         142.3113  141.6918  168.5224 O.3     1  UNL1       -0.3532
     19 C         141.9455  141.4651  168.4312 C.3     1  UNL1        0.1502
     20 H         144.9468  143.8587  164.6497 H       1  UNL1        0.1466
     21 H         145.3330  143.9138  166.3097 H       1  UNL1        0.1466
     22 C         138.4046  139.7318  163.6366 C.ar    1  UNL1        0.0460
     23 C         138.5592  138.4245  162.9173 C.ar    1  UNL1        0.0054
     24 C         138.0945  138.2901  161.4975 C.ar    1  UNL1        0.0208
     25 C         137.4750  139.4630  160.7969 C.ar    1  UNL1        0.1013
     26 N         137.3204  140.7701  161.5161 N.ar    1  UNL1       -0.2165
     27 C         137.7852  140.9046  162.9360 C.ar    1  UNL1        0.2222
     28 F         137.6305  142.2118  163.6552 F       1  UNL1       -0.1832
@<TRIPOS>BOND
     1     2     1    1
     2     2     3    1
     3     3     4    1
     4     4     5   ar
     5     5     6   ar
     6     6     7   ar
     7     7    22    1
     8    22    23   ar
     9    23    24   ar
    10    24    25   ar
    11    25    26   ar
    12    26    27   ar
    13    27    28    1
    14     7     8   ar
    15     8     9   ar
    16     9    10    1
    17    10    11    1
    18    11    12    1
    19    12    13    1
    20    13    14    1
    21    13    15    2
    22    10    16    1
    23    16    17    1
    24    17    18    1
    25    18    19    1
    26    16     2    1
    27     9     4   ar
    28    15    10    1
    29    19    16    1
    30    27    22   ar
    31    14    20    1
    32    14    21    1
@<TRIPOS>MOLECULE
*****
 28 32 0 0 0
SMALL
GASTEIGER

@<TRIPOS>ATOM
      1 C         140.2627  142.0465  170.5621 C.3     1  UNL1        0.0475
      2 C         140.4663  141.4567  169.1980 C.3     1  UNL1        0.1727
      3 O         141.6189  141.9075  168.3505 O.3     1  UNL1       -0.4792
      4 C         141.8226  141.3178  166.9864 C.ar    1  UNL1        0.1362
      5 C         142.9752  141.7686  166.1389 C.ar    1  UNL1        0.0366
      6 C         143.1789  141.1789  164.7748 C.ar    1  UNL1        0.0032
      7 C         142.2300  140.1383  164.2582 C.ar    1  UNL1        0.0036
      8 C         141.0774  139.6875  165.1057 C.ar    1  UNL1        0.0008
      9 C         140.8737  140.2773  166.4699 C.ar    1  UNL1        0.0357
     10 C         139.7211  139.8265  167.3174 C.3     1  UNL1        0.1582
     11 C         139.7968  139.1499  165.9807 C.3     1  UNL1        0.2351
     12 O         138.6523  138.1851  165.8840 O.2     1  UNL1       -0.4478
     13 C         137.8693  138.2653  167.1609 C.2     1  UNL1        0.2770
     14 N         136.6414  137.4706  167.4935 N.pl3   1  UNL1       -0.3133
     15 N         138.5298  139.2797  168.0468 N.2     1  UNL1       -0.2202
     16 C         139.5174  140.4162  168.6815 C.3     1  UNL1        0.1174
     17 C         139.8390  140.5420  168.4450 C.3     1  UNL1        0.1502
     18 O         139.5010  140.4097  168.6935 O.3     1  UNL1       -0.3532
     19 C         139.8390  140.5420  168.4450 C.3     1  UNL1        0.1502
     20 H         136.2814  136.8253  166.8429 H       1  UNL1        0.1466
     21 H         136.1953  137.5944  168.3624 H       1  UNL1        0.1466
     22 C         142.4337  139.5486  162.8942 C.ar    1  UNL1        0.0460
     23 C         143.5934  138.6322  162.6388 C.ar    1  UNL1        0.0054
     24 C         143.7971  138.0425  161.2747 C.ar    1  UNL1        0.0208
     25 C         142.8411  138.3692  160.1660 C.ar    1  UNL1        0.1013
     26 N         141.6814  139.2856  160.4213 N.ar    1  UNL1       -0.2165
     27 C         141.4777  139.8754  161.7854 C.ar    1  UNL1        0.2222
     28 F         140.3180  140.7918  162.0407 F       1  UNL1       -0.1832
@<TRIPOS>BOND
     1     2     1    1
     2     2     3    1
     3     3     4    1
     4     4     5   ar
     5     5     6   ar
     6     6     7   ar
     7     7    22    1
     8    22    23   ar
     9    23    24   ar
    10    24    25   ar
    11    25    26   ar
    12    26    27   ar
    13    27    28    1
    14     7     8   ar
    15     8     9   ar
    16     9    10    1
    17    10    11    1
    18    11    12    1
    19    12    13    1
    20    13    14    1
    21    13    15    2
    22    10    16    1
    23    16    17    1
    24    17    18    1
    25    18    19    1
    26    16     2    1
    27     9     4   ar
    28    15    10    1
    29    19    16    1
    30    27    22   ar
    31    14    20    1
    32    14    21    1
@<TRIPOS>MOLECULE
*****
 28 32 0 0 0
SMALL
GASTEIGER

@<TRIPOS>ATOM
      1 C         144.0281  138.7912  160.6669 C.3     1  UNL1        0.0475
      2 C         143.7103  139.4203  161.9911 C.3     1  UNL1        0.1727
      3 O         143.6594  138.5757  163.2297 O.3     1  UNL1       -0.4792
      4 C         143.3417  139.2047  164.5538 C.ar    1  UNL1        0.1362
      5 C         143.2908  138.3602  165.7924 C.ar    1  UNL1        0.0366
      6 C         142.9730  138.9892  167.1165 C.ar    1  UNL1        0.0032
      7 C         142.7062  140.4628  167.2021 C.ar    1  UNL1        0.0036
      8 C         142.7571  141.3074  165.9635 C.ar    1  UNL1        0.0008
      9 C         143.0749  140.6783  164.6393 C.ar    1  UNL1        0.0357
     10 C         143.1258  141.5228  163.4007 C.3     1  UNL1        0.1582
     11 C         142.7967  142.2884  164.6480 C.3     1  UNL1        0.2351
     12 O         142.6088  143.7284  164.2721 O.2     1  UNL1       -0.4478
     13 C         142.8216  143.8528  162.7925 C.2     1  UNL1        0.2770
     14 N         142.7309  145.1181  161.9921 N.pl3   1  UNL1       -0.3133
     15 N         143.1412  142.4897  162.2540 N.2     1  UNL1       -0.2202
     16 C         143.4435  140.8938  162.0766 C.3     1  UNL1        0.1174
     17 C         143.4293  140.6582  162.4222 C.3     1  UNL1        0.1502
     18 O         143.4443  140.9059  162.0589 O.3     1  UNL1       -0.3532
     19 C         143.4293  140.6582  162.4222 C.3     1  UNL1        0.1502
     20 H         142.5141  145.9684  162.4383 H       1  UNL1        0.1466
     21 H         142.8881  145.0982  161.0204 H       1  UNL1        0.1466
     22 C         142.3884  141.0918  168.5262 C.ar    1  UNL1        0.0460
     23 C         143.2939  142.1450  169.0928 C.ar    1  UNL1        0.0054
     24 C         142.9762  142.7741  170.4169 C.ar    1  UNL1        0.0208
     25 C         141.7530  142.3499  171.1745 C.ar    1  UNL1        0.1013
     26 N         140.8475  141.2968  170.6080 N.ar    1  UNL1       -0.2165
     27 C         141.1652  140.6677  169.2838 C.ar    1  UNL1        0.2222
     28 F         140.2598  139.6146  168.7172 F       1  UNL1       -0.1832
@<TRIPOS>BOND
     1     2     1    1
     2     2     3    1
     3     3     4    1
     4     4     5   ar
     5     5     6   ar
     6     6     7   ar
     7     7    22    1
     8    22    23   ar
     9    23    24   ar
    10    24    25   ar
    11    25    26   ar
    12    26    27   ar
    13    27    28    1
    14     7     8   ar
    15     8     9   ar
    16     9    10    1
    17    10    11    1
    18    11    12    1
    19    12    13    1
    20    13    14    1
    21    13    15    2
    22    10    16    1
    23    16    17    1
    24    17    18    1
    25    18    19    1
    26    16     2    1
    27     9     4   ar
    28    15    10    1
    29    19    16    1
    30    27    22   ar
    31    14    20    1
    32    14    21    1
@<TRIPOS>MOLECULE
*****
 28 32 0 0 0
SMALL
GASTEIGER

@<TRIPOS>ATOM
      1 C         137.9123  140.6379  158.2017 C.3     1  UNL1        0.0475
      2 C         138.2005  140.7630  159.6684 C.3     1  UNL1        0.1727
      3 O         138.1997  139.5420  160.5397 O.3     1  UNL1       -0.4792
      4 C         138.4880  139.6671  162.0064 C.ar    1  UNL1        0.1362
      5 C         138.4872  138.4461  162.8777 C.ar    1  UNL1        0.0366
      6 C         138.7754  138.5711  164.3444 C.ar    1  UNL1        0.0032
      7 C         139.0644  139.9172  164.9399 C.ar    1  UNL1        0.0036
      8 C         139.0652  141.1382  164.0686 C.ar    1  UNL1        0.0008
      9 C         138.7770  141.0131  162.6018 C.ar    1  UNL1        0.0357
     10 C         138.7778  142.2341  161.7305 C.3     1  UNL1        0.1582
     11 C         139.0819  142.5135  163.1726 C.3     1  UNL1        0.2351
     12 O         139.3055  143.9893  163.3217 O.2     1  UNL1       -0.4478
     13 C         139.1396  144.6220  161.9719 C.2     1  UNL1        0.2770
     14 N         139.2759  146.0829  161.6602 N.pl3   1  UNL1       -0.3133
     15 N         138.8134  143.5372  160.9884 N.2     1  UNL1       -0.2202
     16 C         138.4896  142.1090  160.2638 C.3     1  UNL1        0.1174
     17 C         138.4893  141.7684  160.5069 C.3     1  UNL1        0.1502
     18 O         138.4896  142.1265  160.2514 O.3     1  UNL1       -0.3532
     19 C         138.4893  141.7684  160.5069 C.3     1  UNL1        0.1502
     20 H         139.4935  146.7210  162.3775 H       1  UNL1        0.1466
     21 H         139.1477  146.4035  160.7382 H       1  UNL1        0.1466
     22 C         139.3526  140.0423  166.4066 C.ar    1  UNL1        0.0460
     23 C         140.5505  140.8158  166.8723 C.ar    1  UNL1        0.0054
     24 C         140.8387  140.9409  168.3390 C.ar    1  UNL1        0.0208
     25 C         139.9291  140.2925  169.3401 C.ar    1  UNL1        0.1013
     26 N         138.7313  139.5190  168.8744 N.ar    1  UNL1       -0.2165
     27 C         138.4430  139.3939  167.4077 C.ar    1  UNL1        0.2222
     28 F         137.2452  138.6204  166.9420 F       1  UNL1       -0.1832
@<TRIPOS>BOND
     1     2     1    1
     2     2     3    1
     3     3     4    1
     4     4     5   ar
     5     5     6   ar
     6     6     7   ar
     7     7    22    1
     8    22    23   ar
     9    23    24   ar
    10    24    25   ar
    11    25    26   ar
    12    26    27   ar
    13    27    28    1
    14     7     8   ar
    15     8     9   ar
    16     9    10    1
    17    10    11    1
    18    11    12    1
    19    12    13    1
    20    13    14    1
    21    13    15    2
    22    10    16    1
    23    16    17    1
    24    17    18    1
    25    18    19    1
    26    16     2    1
    27     9     4   ar
    28    15    10    1
    29    19    16    1
    30    27    22   ar
    31    14    20    1
    32    14    21    1
