@<TRIPOS>MOLECULE
*****
 31 33 0 0 0
SMALL
GASTEIGER

@<TRIPOS>ATOM
      1 C         139.2486  142.3683  164.7507 C.2     1  UNL1        0.2521
      2 O         138.0146  143.2128  164.6319 O.2     1  UNL1       -0.2698
      3 N         140.1512  142.1884  163.5663 N.am    1  UNL1       -0.2725
      4 C         141.3852  141.3438  163.6852 C.3     1  UNL1        0.1151
      5 C         142.2879  141.1640  162.5007 C.3     1  UNL1        0.1124
      6 N         141.9565  141.8286  161.1974 N.pl3   1  UNL1       -0.3023
      7 C         140.7226  142.6732  161.0786 C.3     1  UNL1        0.1124
      8 C         139.8199  142.8530  162.2631 C.3     1  UNL1        0.1151
      9 C         142.8592  141.6488  160.0130 C.ar    1  UNL1        0.0758
     10 C         143.9173  142.6693  159.7146 C.ar    1  UNL1        0.0175
     11 C         144.8200  142.4894  158.5302 C.ar    1  UNL1        0.0117
     12 C         144.6645  141.2890  157.6442 C.ar    1  UNL1        0.0708
     13 C         143.6064  140.2686  157.9426 C.ar    1  UNL1        0.0412
     14 C         142.7037  140.4485  159.1270 C.ar    1  UNL1        0.1540
     15 F         141.6456  139.4280  159.4254 F       1  UNL1       -0.2028
     16 C         145.5671  141.1091  156.4597 C.1     1  UNL1        0.1005
     17 N         146.4698  140.9292  155.2753 N.1     1  UNL1       -0.1908
     18 C         139.0120  140.3523  166.3725 C.ar    1  UNL1        0.1427
     19 C         139.3433  139.6877  167.6757 C.ar    1  UNL1        0.0384
     20 C         140.2426  140.3744  168.6605 C.ar    1  UNL1        0.0215
     21 C         140.8106  141.7256  168.3420 C.ar    1  UNL1        0.1061
     22 C         140.4792  142.3903  167.0388 C.ar    1  UNL1        0.0259
     23 C         139.5799  141.7036  166.0540 C.ar    1  UNL1        0.0887
     24 S         141.7099  142.4123  169.3268 S.O2    1  UNL1        0.0105
     25 C         142.6092  143.0989  170.3116 C.3     1  UNL1        0.1816
     26 O         140.6825  143.4891  169.5142 O.2     1  UNL1       -0.1686
     27 O         142.7372  141.3355  169.1394 O.2     1  UNL1       -0.1686
     28 O         138.1127  139.6657  165.3877 O.3     1  UNL1       -0.4790
     29 C         139.5899  137.6428  164.6980 C.3     1  UNL1        0.0472
     30 C         138.6990  138.7892  164.3210 C.3     1  UNL1        0.1661
     31 C         138.3945  139.0591  162.8772 C.3     1  UNL1        0.0472
@<TRIPOS>BOND
     1    29    30    1
     2    30    31    1
     3    30    28    1
     4    28    18    1
     5    18    19   ar
     6    19    20   ar
     7    20    21   ar
     8    21    24    1
     9    24    25    1
    10    24    26    2
    11    24    27    2
    12    21    22   ar
    13    22    23   ar
    14    23     1    1
    15     1     2    2
    16     1     3   am
    17     3     4    1
    18     4     5    1
    19     5     6    1
    20     6     9    1
    21     9    10   ar
    22    10    11   ar
    23    11    12   ar
    24    12    16    1
    25    16    17    3
    26    12    13   ar
    27    13    14   ar
    28    14    15    1
    29     6     7    1
    30     7     8    1
    31    23    18   ar
    32     8     3    1
    33    14     9   ar
@<TRIPOS>MOLECULE
*****
 31 33 0 0 0
SMALL
GASTEIGER

@<TRIPOS>ATOM
      1 C         138.6233  140.2104  160.2049 C.2     1  UNL1        0.2521
      2 O         137.2349  139.8884  159.7371 O.2     1  UNL1       -0.2698
      3 N         138.8890  140.4400  161.6632 N.am    1  UNL1       -0.2725
      4 C         140.2774  140.7621  162.1309 C.3     1  UNL1        0.1151
      5 C         140.5432  140.9917  163.5892 C.3     1  UNL1        0.1124
      6 N         139.4205  140.8993  164.5798 N.pl3   1  UNL1       -0.3023
      7 C         138.0322  140.5773  164.1120 C.3     1  UNL1        0.1124
      8 C         137.7664  140.3476  162.6537 C.3     1  UNL1        0.1151
      9 C         139.6862  141.1289  166.0381 C.ar    1  UNL1        0.0758
     10 C         139.4115  140.0388  167.0312 C.ar    1  UNL1        0.0175
     11 C         139.6772  140.2684  168.4895 C.ar    1  UNL1        0.0117
     12 C         140.2177  141.5881  168.9547 C.ar    1  UNL1        0.0708
     13 C         140.4924  142.6781  167.9616 C.ar    1  UNL1        0.0412
     14 C         140.2267  142.4485  166.5033 C.ar    1  UNL1        0.1540
     15 F         140.5014  143.5386  165.5101 F       1  UNL1       -0.2028
     16 C         140.4835  141.8178  170.4130 C.1     1  UNL1        0.1005
     17 N         140.7492  142.0474  171.8713 N.1     1  UNL1       -0.1908
     18 C         140.1684  141.6401  158.6821 C.ar    1  UNL1        0.1427
     19 C         141.2910  141.7324  157.6916 C.ar    1  UNL1        0.0384
     20 C         141.9912  140.4875  157.2333 C.ar    1  UNL1        0.0215
     21 C         141.5687  139.1503  157.7655 C.ar    1  UNL1        0.1061
     22 C         140.4461  139.0579  158.7560 C.ar    1  UNL1        0.0259
     23 C         139.7459  140.3028  159.2143 C.ar    1  UNL1        0.0887
     24 S         142.2688  137.9054  157.3072 S.O2    1  UNL1        0.0105
     25 C         142.9690  136.6605  156.8488 C.3     1  UNL1        0.1816
     26 O         143.5952  138.5538  157.5723 O.2     1  UNL1       -0.1686
     27 O         140.9425  137.2570  157.0420 O.2     1  UNL1       -0.1686
     28 O         139.4682  142.8849  159.1404 O.3     1  UNL1       -0.4790
     29 C         140.3280  145.2722  158.5820 C.3     1  UNL1        0.0472
     30 C         140.2654  144.0991  159.5148 C.3     1  UNL1        0.1661
     31 C         141.0000  144.1403  160.8220 C.3     1  UNL1        0.0472
@<TRIPOS>BOND
     1    29    30    1
     2    30    31    1
     3    30    28    1
     4    28    18    1
     5    18    19   ar
     6    19    20   ar
     7    20    21   ar
     8    21    24    1
     9    24    25    1
    10    24    26    2
    11    24    27    2
    12    21    22   ar
    13    22    23   ar
    14    23     1    1
    15     1     2    2
    16     1     3   am
    17     3     4    1
    18     4     5    1
    19     5     6    1
    20     6     9    1
    21     9    10   ar
    22    10    11   ar
    23    11    12   ar
    24    12    16    1
    25    16    17    3
    26    12    13   ar
    27    13    14   ar
    28    14    15    1
    29     6     7    1
    30     7     8    1
    31    23    18   ar
    32     8     3    1
    33    14     9   ar
@<TRIPOS>MOLECULE
*****
 31 33 0 0 0
SMALL
GASTEIGER

@<TRIPOS>ATOM
      1 C         139.7120  139.5265  165.1944 C.2     1  UNL1        0.2521
      2 O         138.7744  138.3559  165.1717 O.2     1  UNL1       -0.2698
      3 N         139.8431  140.4060  163.9864 N.am    1  UNL1       -0.2725
      4 C         140.7807  141.5767  164.0092 C.3     1  UNL1        0.1151
      5 C         140.9118  142.4562  162.8011 C.3     1  UNL1        0.1124
      6 N         140.1052  142.1650  161.5703 N.pl3   1  UNL1       -0.3023
      7 C         139.1677  140.9943  161.5476 C.3     1  UNL1        0.1124
      8 C         139.0366  140.1149  162.7557 C.3     1  UNL1        0.1151
      9 C         140.2363  143.0444  160.3623 C.ar    1  UNL1        0.0758
     10 C         140.5082  142.4367  159.0181 C.ar    1  UNL1        0.0175
     11 C         140.6393  143.3162  157.8101 C.ar    1  UNL1        0.0117
     12 C         140.4985  144.8034  157.9462 C.ar    1  UNL1        0.0708
     13 C         140.2266  145.4110  159.2904 C.ar    1  UNL1        0.0412
     14 C         140.0955  144.5316  160.4984 C.ar    1  UNL1        0.1540
     15 F         139.8236  145.1393  161.8426 F       1  UNL1       -0.2028
     16 C         140.6296  145.6829  156.7382 C.1     1  UNL1        0.1005
     17 N         140.7607  146.5623  155.5302 N.1     1  UNL1       -0.1908
     18 C         141.8527  139.1607  166.6204 C.ar    1  UNL1        0.1427
     19 C         142.6592  139.4519  167.8512 C.ar    1  UNL1        0.0384
     20 C         142.1314  140.4002  168.8867 C.ar    1  UNL1        0.0215
     21 C         140.7972  141.0572  168.6915 C.ar    1  UNL1        0.1061
     22 C         139.9908  140.7660  167.4608 C.ar    1  UNL1        0.0259
     23 C         140.5185  139.8177  166.4252 C.ar    1  UNL1        0.0887
     24 S         140.2695  142.0054  169.7270 S.O2    1  UNL1        0.0105
     25 C         139.7417  142.9536  170.7626 C.3     1  UNL1        0.1816
     26 O         139.9647  140.8481  170.6314 O.2     1  UNL1       -0.1686
     27 O         140.5742  143.1627  168.8227 O.2     1  UNL1       -0.1686
     28 O         142.3805  138.2125  165.5849 O.3     1  UNL1       -0.4790
     29 C         142.7266  138.4585  163.0218 C.3     1  UNL1        0.0472
     30 C         143.1764  138.7349  164.4258 C.3     1  UNL1        0.1661
     31 C         144.4222  139.5337  164.6707 C.3     1  UNL1        0.0472
@<TRIPOS>BOND
     1    29    30    1
     2    30    31    1
     3    30    28    1
     4    28    18    1
     5    18    19   ar
     6    19    20   ar
     7    20    21   ar
     8    21    24    1
     9    24    25    1
    10    24    26    2
    11    24    27    2
    12    21    22   ar
    13    22    23   ar
    14    23     1    1
    15     1     2    2
    16     1     3   am
    17     3     4    1
    18     4     5    1
    19     5     6    1
    20     6     9    1
    21     9    10   ar
    22    10    11   ar
    23    11    12   ar
    24    12    16    1
    25    16    17    3
    26    12    13   ar
    27    13    14   ar
    28    14    15    1
    29     6     7    1
    30     7     8    1
    31    23    18   ar
    32     8     3    1
    33    14     9   ar
@<TRIPOS>MOLECULE
*****
 31 33 0 0 0
SMALL
GASTEIGER

@<TRIPOS>ATOM
      1 C         139.3359  140.6197  160.3123 C.2     1  UNL1        0.2521
      2 O         138.0331  140.1376  159.7464 O.2     1  UNL1       -0.2698
      3 N         139.4853  140.8117  161.7925 N.am    1  UNL1       -0.2725
      4 C         140.7882  141.2938  162.3584 C.3     1  UNL1        0.1151
      5 C         140.9377  141.4859  163.8385 C.3     1  UNL1        0.1124
      6 N         139.7843  141.1958  164.7527 N.pl3   1  UNL1       -0.3023
      7 C         138.4815  140.7138  164.1868 C.3     1  UNL1        0.1124
      8 C         138.3320  140.5217  162.7066 C.3     1  UNL1        0.1151
      9 C         139.9338  141.3879  166.2328 C.ar    1  UNL1        0.0758
     10 C         140.3472  142.7228  166.7779 C.ar    1  UNL1        0.0175
     11 C         140.4967  142.9149  168.2581 C.ar    1  UNL1        0.0117
     12 C         140.2328  141.7720  169.1931 C.ar    1  UNL1        0.0708
     13 C         139.8194  140.4371  168.6480 C.ar    1  UNL1        0.0412
     14 C         139.6699  140.2451  167.1678 C.ar    1  UNL1        0.1540
     15 F         139.2564  138.9101  166.6227 F       1  UNL1       -0.2028
     16 C         140.3822  141.9640  170.6732 C.1     1  UNL1        0.1005
     17 N         140.5317  142.1561  172.1533 N.1     1  UNL1       -0.1908
     18 C         141.4746  139.8282  159.0676 C.ar    1  UNL1        0.1427
     19 C         142.6279  140.1183  158.1534 C.ar    1  UNL1        0.0384
     20 C         142.7959  141.4898  157.5699 C.ar    1  UNL1        0.0215
     21 C         141.8105  142.5714  157.9004 C.ar    1  UNL1        0.1061
     22 C         140.6572  142.2813  158.8146 C.ar    1  UNL1        0.0259
     23 C         140.4892  140.9097  159.3981 C.ar    1  UNL1        0.0887
     24 S         141.9784  143.9429  157.3169 S.O2    1  UNL1        0.0105
     25 C         142.1464  145.3145  156.7333 C.3     1  UNL1        0.1816
     26 O         142.9163  144.3022  158.4311 O.2     1  UNL1       -0.1686
     27 O         141.0406  143.5837  156.2027 O.2     1  UNL1       -0.1686
     28 O         141.3067  138.4566  159.6511 O.3     1  UNL1       -0.4790
     29 C         143.5226  138.1458  160.9714 C.3     1  UNL1        0.0472
     30 C         142.0248  138.0861  160.9148 C.3     1  UNL1        0.1661
     31 C         141.2452  137.6559  162.1220 C.3     1  UNL1        0.0472
@<TRIPOS>BOND
     1    29    30    1
     2    30    31    1
     3    30    28    1
     4    28    18    1
     5    18    19   ar
     6    19    20   ar
     7    20    21   ar
     8    21    24    1
     9    24    25    1
    10    24    26    2
    11    24    27    2
    12    21    22   ar
    13    22    23   ar
    14    23     1    1
    15     1     2    2
    16     1     3   am
    17     3     4    1
    18     4     5    1
    19     5     6    1
    20     6     9    1
    21     9    10   ar
    22    10    11   ar
    23    11    12   ar
    24    12    16    1
    25    16    17    3
    26    12    13   ar
    27    13    14   ar
    28    14    15    1
    29     6     7    1
    30     7     8    1
    31    23    18   ar
    32     8     3    1
    33    14     9   ar
@<TRIPOS>MOLECULE
*****
 31 33 0 0 0
SMALL
GASTEIGER

@<TRIPOS>ATOM
      1 C         144.2080  141.7956  164.2062 C.2     1  UNL1        0.2521
      2 O         145.6848  142.0577  164.2010 O.2     1  UNL1       -0.2698
      3 N         143.3828  142.1288  162.9987 N.am    1  UNL1       -0.2725
      4 C         141.9059  141.8666  163.0040 C.3     1  UNL1        0.1151
      5 C         141.0807  142.1998  161.7964 C.3     1  UNL1        0.1124
      6 N         141.7325  142.7951  160.5837 N.pl3   1  UNL1       -0.3023
      7 C         143.2094  143.0573  160.5785 C.3     1  UNL1        0.1124
      8 C         144.0345  142.7241  161.7860 C.3     1  UNL1        0.1151
      9 C         140.9074  143.1283  159.3761 C.ar    1  UNL1        0.0758
     10 C         140.2481  142.0322  158.5926 C.ar    1  UNL1        0.0175
     11 C         139.4229  142.3654  157.3850 C.ar    1  UNL1        0.0117
     12 C         139.2571  143.7947  156.9611 C.ar    1  UNL1        0.0708
     13 C         139.9164  144.8907  157.7446 C.ar    1  UNL1        0.0412
     14 C         140.7415  144.5575  158.9522 C.ar    1  UNL1        0.1540
     15 F         141.4009  145.6537  159.7357 F       1  UNL1       -0.2028
     16 C         138.4319  144.1279  155.7535 C.1     1  UNL1        0.1005
     17 N         137.6068  144.4611  154.5460 N.1     1  UNL1       -0.1908
     18 C         143.3953  139.7130  165.5301 C.ar    1  UNL1        0.1427
     19 C         142.7435  139.1178  166.7429 C.ar    1  UNL1        0.0384
     20 C         142.2526  140.0096  167.8445 C.ar    1  UNL1        0.0215
     21 C         142.4135  141.4968  167.7334 C.ar    1  UNL1        0.1061
     22 C         143.0652  142.0921  166.5206 C.ar    1  UNL1        0.0259
     23 C         143.5561  141.2002  165.4190 C.ar    1  UNL1        0.0887
     24 S         141.9225  142.3887  168.8350 S.O2    1  UNL1        0.0105
     25 C         141.4316  143.2806  169.9366 C.3     1  UNL1        0.1816
     26 O         143.3391  142.7380  169.1834 O.2     1  UNL1       -0.1686
     27 O         140.5060  142.0394  168.4865 O.2     1  UNL1       -0.1686
     28 O         143.8862  138.8212  164.4285 O.3     1  UNL1       -0.4790
     29 C         141.6257  137.8549  163.5882 C.3     1  UNL1        0.0472
     30 C         142.9712  138.4514  163.2989 C.3     1  UNL1        0.1661
     31 C         143.4018  138.6782  161.8800 C.3     1  UNL1        0.0472
@<TRIPOS>BOND
     1    29    30    1
     2    30    31    1
     3    30    28    1
     4    28    18    1
     5    18    19   ar
     6    19    20   ar
     7    20    21   ar
     8    21    24    1
     9    24    25    1
    10    24    26    2
    11    24    27    2
    12    21    22   ar
    13    22    23   ar
    14    23     1    1
    15     1     2    2
    16     1     3   am
    17     3     4    1
    18     4     5    1
    19     5     6    1
    20     6     9    1
    21     9    10   ar
    22    10    11   ar
    23    11    12   ar
    24    12    16    1
    25    16    17    3
    26    12    13   ar
    27    13    14   ar
    28    14    15    1
    29     6     7    1
    30     7     8    1
    31    23    18   ar
    32     8     3    1
    33    14     9   ar
@<TRIPOS>MOLECULE
*****
 31 33 0 0 0
SMALL
GASTEIGER

@<TRIPOS>ATOM
      1 C         142.2979  138.3217  160.7817 C.2     1  UNL1        0.2521
      2 O         142.5999  136.8759  160.5203 O.2     1  UNL1       -0.2698
      3 N         142.0723  138.7988  162.1858 N.am    1  UNL1       -0.2725
      4 C         141.7703  140.2447  162.4472 C.3     1  UNL1        0.1151
      5 C         141.5447  140.7218  163.8513 C.3     1  UNL1        0.1124
      6 N         141.6213  139.7531  164.9940 N.pl3   1  UNL1       -0.3023
      7 C         141.9233  138.3073  164.7326 C.3     1  UNL1        0.1124
      8 C         142.1489  137.8302  163.3285 C.3     1  UNL1        0.1151
      9 C         141.3957  140.2302  166.3981 C.ar    1  UNL1        0.0758
     10 C         142.4856  140.9593  167.1266 C.ar    1  UNL1        0.0175
     11 C         142.2601  141.4364  168.5307 C.ar    1  UNL1        0.0117
     12 C         140.9447  141.1844  169.2063 C.ar    1  UNL1        0.0708
     13 C         139.8549  140.4553  168.4778 C.ar    1  UNL1        0.0412
     14 C         140.0804  139.9782  167.0737 C.ar    1  UNL1        0.1540
     15 F         138.9906  139.2491  166.3451 F       1  UNL1       -0.2028
     16 C         140.7191  141.6615  170.6104 C.1     1  UNL1        0.1005
     17 N         140.4936  142.1386  172.0145 N.1     1  UNL1       -0.1908
     18 C         140.9073  139.5529  158.9649 C.ar    1  UNL1        0.1427
     19 C         140.8308  140.5216  157.8223 C.ar    1  UNL1        0.0384
     20 C         142.0684  141.2280  157.3537 C.ar    1  UNL1        0.0215
     21 C         143.3824  140.9656  158.0278 C.ar    1  UNL1        0.1061
     22 C         143.4589  139.9969  159.1704 C.ar    1  UNL1        0.0259
     23 C         142.2213  139.2905  159.6390 C.ar    1  UNL1        0.0887
     24 S         144.6200  141.6720  157.5593 S.O2    1  UNL1        0.0105
     25 C         145.8575  142.3783  157.0907 C.3     1  UNL1        0.1816
     26 O         144.0445  142.9809  158.0125 O.2     1  UNL1       -0.1686
     27 O         145.1955  140.3630  157.1060 O.2     1  UNL1       -0.1686
     28 O         139.6698  138.8465  159.4334 O.3     1  UNL1       -0.4790
     29 C         138.4481  138.5516  161.7073 C.3     1  UNL1        0.0472
     30 C         138.8576  139.4214  160.5558 C.3     1  UNL1        0.1661
     31 C         138.4547  140.8660  160.5268 C.3     1  UNL1        0.0472
@<TRIPOS>BOND
     1    29    30    1
     2    30    31    1
     3    30    28    1
     4    28    18    1
     5    18    19   ar
     6    19    20   ar
     7    20    21   ar
     8    21    24    1
     9    24    25    1
    10    24    26    2
    11    24    27    2
    12    21    22   ar
    13    22    23   ar
    14    23     1    1
    15     1     2    2
    16     1     3   am
    17     3     4    1
    18     4     5    1
    19     5     6    1
    20     6     9    1
    21     9    10   ar
    22    10    11   ar
    23    11    12   ar
    24    12    16    1
    25    16    17    3
    26    12    13   ar
    27    13    14   ar
    28    14    15    1
    29     6     7    1
    30     7     8    1
    31    23    18   ar
    32     8     3    1
    33    14     9   ar
@<TRIPOS>MOLECULE
*****
 31 33 0 0 0
SMALL
GASTEIGER

@<TRIPOS>ATOM
      1 C         138.6892  140.1745  157.7253 C.2     1  UNL1        0.2521
      2 O         139.0370  138.9554  156.9236 O.2     1  UNL1       -0.2698
      3 N         138.7835  140.1401  159.2219 N.am    1  UNL1       -0.2725
      4 C         138.4356  141.3593  160.0236 C.3     1  UNL1        0.1151
      5 C         138.5299  141.3248  161.5202 C.3     1  UNL1        0.1124
      6 N         138.9719  140.0711  162.2152 N.pl3   1  UNL1       -0.3023
      7 C         139.3197  138.8520  161.4135 C.3     1  UNL1        0.1124
      8 C         139.2255  138.8865  159.9169 C.3     1  UNL1        0.1151
      9 C         139.0662  140.0367  163.7118 C.ar    1  UNL1        0.0758
     10 C         139.4132  141.2834  164.4704 C.ar    1  UNL1        0.0175
     11 C         139.5074  141.2490  165.9670 C.ar    1  UNL1        0.0117
     12 C         139.2547  139.9678  166.7051 C.ar    1  UNL1        0.0708
     13 C         138.9077  138.7211  165.9466 C.ar    1  UNL1        0.0412
     14 C         138.8135  138.7556  164.4499 C.ar    1  UNL1        0.1540
     15 F         138.4665  137.5088  163.6914 F       1  UNL1       -0.2028
     16 C         139.3489  139.9333  168.2018 C.1     1  UNL1        0.1005
     17 N         139.4432  139.8989  169.6984 N.1     1  UNL1       -0.1908
     18 C         136.8434  141.5448  156.5147 C.ar    1  UNL1        0.1427
     19 C         136.4014  142.7985  155.8198 C.ar    1  UNL1        0.0384
     20 C         137.3632  143.9355  155.6404 C.ar    1  UNL1        0.0215
     21 C         138.7669  143.8189  156.1560 C.ar    1  UNL1        0.1061
     22 C         139.2089  142.5652  156.8509 C.ar    1  UNL1        0.0259
     23 C         138.2472  141.4282  157.0303 C.ar    1  UNL1        0.0887
     24 S         139.7287  144.9559  155.9766 S.O2    1  UNL1        0.0105
     25 C         140.6905  146.0929  155.7972 C.3     1  UNL1        0.1816
     26 O         139.2735  145.1169  154.5564 O.2     1  UNL1       -0.1686
     27 O         140.1839  144.7949  157.3967 O.2     1  UNL1       -0.1686
     28 O         135.8816  140.4078  156.6941 O.3     1  UNL1       -0.4790
     29 C         133.3378  140.4347  156.1670 C.3     1  UNL1        0.0472
     30 C         134.7542  140.2188  155.7230 C.3     1  UNL1        0.1661
     31 C         135.0431  139.8140  154.3078 C.3     1  UNL1        0.0472
@<TRIPOS>BOND
     1    29    30    1
     2    30    31    1
     3    30    28    1
     4    28    18    1
     5    18    19   ar
     6    19    20   ar
     7    20    21   ar
     8    21    24    1
     9    24    25    1
    10    24    26    2
    11    24    27    2
    12    21    22   ar
    13    22    23   ar
    14    23     1    1
    15     1     2    2
    16     1     3   am
    17     3     4    1
    18     4     5    1
    19     5     6    1
    20     6     9    1
    21     9    10   ar
    22    10    11   ar
    23    11    12   ar
    24    12    16    1
    25    16    17    3
    26    12    13   ar
    27    13    14   ar
    28    14    15    1
    29     6     7    1
    30     7     8    1
    31    23    18   ar
    32     8     3    1
    33    14     9   ar
@<TRIPOS>MOLECULE
*****
 31 33 0 0 0
SMALL
GASTEIGER

@<TRIPOS>ATOM
      1 C         142.8915  140.3835  160.5746 C.2     1  UNL1        0.2521
      2 O         144.0567  139.5282  160.1738 O.2     1  UNL1       -0.2698
      3 N         142.5873  140.6038  162.0268 N.am    1  UNL1       -0.2725
      4 C         141.4220  141.4592  162.4276 C.3     1  UNL1        0.1151
      5 C         141.1177  141.6795  163.8798 C.3     1  UNL1        0.1124
      6 N         141.9787  141.0444  164.9312 N.pl3   1  UNL1       -0.3023
      7 C         143.1439  140.1891  164.5304 C.3     1  UNL1        0.1124
      8 C         143.4482  139.9688  163.0782 C.3     1  UNL1        0.1151
      9 C         141.6745  141.2647  166.3834 C.ar    1  UNL1        0.0758
     10 C         140.4463  140.6564  166.9931 C.ar    1  UNL1        0.0175
     11 C         140.1420  140.8767  168.4453 C.ar    1  UNL1        0.0117
     12 C         141.0659  141.7054  169.2878 C.ar    1  UNL1        0.0708
     13 C         142.2940  142.3136  168.6782 C.ar    1  UNL1        0.0412
     14 C         142.5983  142.0933  167.2260 C.ar    1  UNL1        0.1540
     15 F         143.8265  142.7016  166.6163 F       1  UNL1       -0.2028
     16 C         140.7616  141.9257  170.7400 C.1     1  UNL1        0.1005
     17 N         140.4574  142.1460  172.1922 N.1     1  UNL1       -0.1908
     18 C         140.8640  140.2666  158.9542 C.ar    1  UNL1        0.1427
     19 C         140.0031  140.9017  157.9028 C.ar    1  UNL1        0.0384
     20 C         140.3087  142.2888  157.4205 C.ar    1  UNL1        0.0215
     21 C         141.4752  143.0407  157.9894 C.ar    1  UNL1        0.1061
     22 C         142.3361  142.4056  159.0408 C.ar    1  UNL1        0.0259
     23 C         142.0305  141.0186  159.5232 C.ar    1  UNL1        0.0887
     24 S         141.7808  144.4278  157.5070 S.O2    1  UNL1        0.0105
     25 C         142.0863  145.8148  157.0246 C.3     1  UNL1        0.1816
     26 O         142.5264  144.7057  158.7786 O.2     1  UNL1       -0.1686
     27 O         141.0352  144.1498  156.2355 O.2     1  UNL1       -0.1686
     28 O         140.5585  138.8796  159.4366 O.3     1  UNL1       -0.4790
     29 C         138.3148  139.2560  160.6912 C.3     1  UNL1        0.0472
     30 C         139.6990  138.6797  160.6496 C.3     1  UNL1        0.1661
     31 C         140.2238  137.9035  161.8210 C.3     1  UNL1        0.0472
@<TRIPOS>BOND
     1    29    30    1
     2    30    31    1
     3    30    28    1
     4    28    18    1
     5    18    19   ar
     6    19    20   ar
     7    20    21   ar
     8    21    24    1
     9    24    25    1
    10    24    26    2
    11    24    27    2
    12    21    22   ar
    13    22    23   ar
    14    23     1    1
    15     1     2    2
    16     1     3   am
    17     3     4    1
    18     4     5    1
    19     5     6    1
    20     6     9    1
    21     9    10   ar
    22    10    11   ar
    23    11    12   ar
    24    12    16    1
    25    16    17    3
    26    12    13   ar
    27    13    14   ar
    28    14    15    1
    29     6     7    1
    30     7     8    1
    31    23    18   ar
    32     8     3    1
    33    14     9   ar
@<TRIPOS>MOLECULE
*****
 31 33 0 0 0
SMALL
GASTEIGER

@<TRIPOS>ATOM
      1 C         143.0213  139.4616  158.4918 C.2     1  UNL1        0.2521
      2 O         144.2660  139.8931  157.7746 O.2     1  UNL1       -0.2698
      3 N         142.9581  139.5255  159.9891 N.am    1  UNL1       -0.2725
      4 C         141.7133  139.0939  160.7063 C.3     1  UNL1        0.1151
      5 C         141.6501  139.1578  162.2036 C.3     1  UNL1        0.1124
      6 N         142.8316  139.6533  162.9837 N.pl3   1  UNL1       -0.3023
      7 C         144.0763  140.0848  162.2665 C.3     1  UNL1        0.1124
      8 C         144.1396  140.0209  160.7692 C.3     1  UNL1        0.1151
      9 C         142.7684  139.7172  164.4810 C.ar    1  UNL1        0.0758
     10 C         143.2578  138.5613  165.3023 C.ar    1  UNL1        0.0175
     11 C         143.1946  138.6252  166.7996 C.ar    1  UNL1        0.0117
     12 C         142.6420  139.8450  167.4756 C.ar    1  UNL1        0.0708
     13 C         142.1526  141.0008  166.6543 C.ar    1  UNL1        0.0412
     14 C         142.2158  140.9369  165.1569 C.ar    1  UNL1        0.1540
     15 F         141.7263  142.0927  164.3356 F       1  UNL1       -0.2028
     16 C         142.5787  139.9089  168.9729 C.1     1  UNL1        0.1005
     17 N         142.5155  139.9728  170.4702 N.1     1  UNL1       -0.1908
     18 C         141.7659  137.5269  157.2955 C.ar    1  UNL1        0.1427
     19 C         140.5844  137.0315  156.5154 C.ar    1  UNL1        0.0384
     20 C         139.4767  137.9752  156.1516 C.ar    1  UNL1        0.0215
     21 C         139.5506  139.4144  156.5678 C.ar    1  UNL1        0.1061
     22 C         140.7321  139.9098  157.3478 C.ar    1  UNL1        0.0259
     23 C         141.8397  138.9661  157.7117 C.ar    1  UNL1        0.0887
     24 S         138.4429  140.3582  156.2039 S.O2    1  UNL1        0.0105
     25 C         137.3352  141.3019  155.8400 C.3     1  UNL1        0.1816
     26 O         137.6434  139.2107  155.6614 O.2     1  UNL1       -0.1686
     27 O         139.2424  141.5056  156.7463 O.2     1  UNL1       -0.1686
     28 O         142.8735  136.5831  157.6594 O.3     1  UNL1       -0.4790
     29 C         143.1092  134.1086  156.9036 C.3     1  UNL1        0.0472
     30 C         143.3525  135.5691  156.6632 C.3     1  UNL1        0.1661
     31 C         144.0747  136.0156  155.4266 C.3     1  UNL1        0.0472
@<TRIPOS>BOND
     1    29    30    1
     2    30    31    1
     3    30    28    1
     4    28    18    1
     5    18    19   ar
     6    19    20   ar
     7    20    21   ar
     8    21    24    1
     9    24    25    1
    10    24    26    2
    11    24    27    2
    12    21    22   ar
    13    22    23   ar
    14    23     1    1
    15     1     2    2
    16     1     3   am
    17     3     4    1
    18     4     5    1
    19     5     6    1
    20     6     9    1
    21     9    10   ar
    22    10    11   ar
    23    11    12   ar
    24    12    16    1
    25    16    17    3
    26    12    13   ar
    27    13    14   ar
    28    14    15    1
    29     6     7    1
    30     7     8    1
    31    23    18   ar
    32     8     3    1
    33    14     9   ar
