@<TRIPOS>MOLECULE
*****
 37 39 0 0 0
SMALL
GASTEIGER

@<TRIPOS>ATOM
      1 C         138.0824  138.8818  167.0332 C.3     1  UNL1        0.0216
      2 C         139.0741  139.7435  166.3092 C.3     1  UNL1        0.0760
      3 N         138.6086  140.6862  165.2395 N.am    1  UNL1       -0.3028
      4 C         138.4302  140.1957  163.8332 C.2     1  UNL1        0.2587
      5 O         138.7175  138.7625  163.4967 O.2     1  UNL1       -0.2714
      6 H         138.4200  141.6269  165.4604 H       1  UNL1        0.1495
      7 C         137.9646  141.1386  162.7634 C.3     1  UNL1        0.2022
      8 C         138.4480  140.1842  161.7120 C.3     1  UNL1        0.0532
      9 C         137.4813  142.0929  163.8149 C.3     1  UNL1        0.0532
     10 O         137.4991  142.0813  161.6937 O.3     1  UNL1       -0.4586
     11 C         138.5004  142.8531  160.8864 C.ar    1  UNL1        0.2251
     12 C         139.5782  143.6350  161.5770 C.ar    1  UNL1        0.0577
     13 C         140.5794  144.4067  160.7697 C.ar    1  UNL1        0.0102
     14 C         140.5030  144.3965  159.2717 C.ar    1  UNL1        0.0907
     15 C         139.4252  143.6146  158.5810 C.ar    1  UNL1        0.1059
     16 N         138.4240  142.8429  159.3883 N.ar    1  UNL1       -0.2102
     17 C         141.5043  145.1683  158.4643 C.3     1  UNL1        0.4200
     18 F         142.5057  145.9400  157.6571 F       1  UNL1       -0.1658
     19 F         140.4525  146.1843  158.1309 F       1  UNL1       -0.1658
     20 F         142.5562  144.1523  158.7978 F       1  UNL1       -0.1658
     21 C         140.5315  139.6624  166.6551 C.3     1  UNL1        0.0446
     22 C         141.0472  140.3349  167.8927 C.ar    1  UNL1       -0.0199
     23 C         142.1052  139.6698  168.7223 C.ar    1  UNL1       -0.0042
     24 C         142.6209  140.3423  169.9599 C.ar    1  UNL1        0.0004
     25 C         142.0786  141.6799  170.3680 C.ar    1  UNL1        0.0103
     26 C         141.0206  142.3450  169.5384 C.ar    1  UNL1        0.0681
     27 C         140.5049  141.6726  168.3008 C.ar    1  UNL1        0.0061
     28 C         140.4783  143.6828  169.9466 C.1     1  UNL1        0.1004
     29 N         139.9360  145.0204  170.3546 N.1     1  UNL1       -0.1908
     30 C         141.4731  138.9087  165.7633 C.3     1  UNL1        0.0323
     31 C         142.5365  139.6444  165.0029 C.ar    1  UNL1       -0.0218
     32 C         142.1873  140.8850  164.2354 C.ar    1  UNL1       -0.0034
     33 C         143.2506  141.6207  163.4750 C.ar    1  UNL1        0.0111
     34 C         144.6630  141.1157  163.4821 C.ar    1  UNL1        0.0577
     35 CL        145.7264  141.8514  162.7217 Cl      1  UNL1       -0.0822
     36 C         145.0121  139.8751  164.2496 C.ar    1  UNL1        0.0111
     37 C         143.9489  139.1394  165.0100 C.ar    1  UNL1       -0.0034
@<TRIPOS>BOND
     1     2     1    1
     2     2     3    1
     3     3     4   am
     4     4     5    2
     5     4     7    1
     6     7     8    1
     7     7     9    1
     8     7    10    1
     9    10    11    1
    10    11    12   ar
    11    12    13   ar
    12    13    14   ar
    13    14    17    1
    14    17    18    1
    15    17    19    1
    16    17    20    1
    17    14    15   ar
    18    15    16   ar
    19     2    21    1
    20    21    30    1
    21    30    31    1
    22    31    32   ar
    23    32    33   ar
    24    33    34   ar
    25    34    35    1
    26    34    36   ar
    27    36    37   ar
    28    21    22    1
    29    22    23   ar
    30    23    24   ar
    31    24    25   ar
    32    25    26   ar
    33    26    28    1
    34    28    29    3
    35    26    27   ar
    36    16    11   ar
    37    37    31   ar
    38    27    22   ar
    39     3     6    1
@<TRIPOS>MOLECULE
*****
 37 39 0 0 0
SMALL
GASTEIGER

@<TRIPOS>ATOM
      1 C         137.6556  138.3292  166.7517 C.3     1  UNL1        0.0216
      2 C         138.4617  139.5015  166.2763 C.3     1  UNL1        0.0760
      3 N         137.9944  140.3051  165.0991 N.am    1  UNL1       -0.3028
      4 C         138.3884  139.8993  163.7099 C.2     1  UNL1        0.2587
      5 O         139.2498  138.6897  163.4978 O.2     1  UNL1       -0.2714
      6 H         137.4291  141.0990  165.2383 H       1  UNL1        0.1495
      7 C         137.9211  140.7030  162.5327 C.3     1  UNL1        0.2022
      8 C         137.2859  141.6945  163.4619 C.3     1  UNL1        0.0532
      9 C         138.5562  139.7115  161.6035 C.3     1  UNL1        0.0532
     10 O         137.4537  141.5067  161.3556 O.3     1  UNL1       -0.4586
     11 C         138.3948  142.4552  160.6738 C.ar    1  UNL1        0.2251
     12 C         138.5141  142.4481  159.1786 C.ar    1  UNL1        0.0577
     13 C         139.4552  143.3966  158.4969 C.ar    1  UNL1        0.0102
     14 C         140.2769  144.3521  159.3104 C.ar    1  UNL1        0.0907
     15 C         140.1576  144.3592  160.8056 C.ar    1  UNL1        0.1059
     16 N         139.2166  143.4107  161.4873 N.ar    1  UNL1       -0.2102
     17 C         141.2180  145.3006  158.6285 C.3     1  UNL1        0.4200
     18 F         142.1591  146.2490  157.9468 F       1  UNL1       -0.1658
     19 F         140.0761  146.2317  158.3476 F       1  UNL1       -0.1658
     20 F         142.3599  144.3695  158.9095 F       1  UNL1       -0.1658
     21 C         139.7352  139.8701  166.9780 C.3     1  UNL1        0.0446
     22 C         140.9974  140.0610  166.1903 C.ar    1  UNL1       -0.0199
     23 C         141.9191  138.9007  165.9577 C.ar    1  UNL1       -0.0042
     24 C         143.1812  139.0916  165.1700 C.ar    1  UNL1        0.0004
     25 C         143.5217  140.4429  164.6150 C.ar    1  UNL1        0.0103
     26 C         142.6001  141.6032  164.8476 C.ar    1  UNL1        0.0681
     27 C         141.3379  141.4123  165.6353 C.ar    1  UNL1        0.0061
     28 C         142.9406  142.9545  164.2926 C.1     1  UNL1        0.1004
     29 N         143.2811  144.3058  163.7375 N.1     1  UNL1       -0.1908
     30 C         139.7465  140.0477  168.4674 C.3     1  UNL1        0.0323
     31 C         140.7152  141.0014  169.1016 C.ar    1  UNL1       -0.0218
     32 C         142.0631  140.5162  169.5461 C.ar    1  UNL1       -0.0034
     33 C         143.0318  141.4697  170.1803 C.ar    1  UNL1        0.0111
     34 C         142.6525  142.9085  170.3701 C.ar    1  UNL1        0.0577
     35 CL        143.6213  143.8622  171.0043 Cl      1  UNL1       -0.0822
     36 C         141.3046  143.3937  169.9256 C.ar    1  UNL1        0.0111
     37 C         140.3359  142.4401  169.2914 C.ar    1  UNL1       -0.0034
@<TRIPOS>BOND
     1     2     1    1
     2     2     3    1
     3     3     4   am
     4     4     5    2
     5     4     7    1
     6     7     8    1
     7     7     9    1
     8     7    10    1
     9    10    11    1
    10    11    12   ar
    11    12    13   ar
    12    13    14   ar
    13    14    17    1
    14    17    18    1
    15    17    19    1
    16    17    20    1
    17    14    15   ar
    18    15    16   ar
    19     2    21    1
    20    21    30    1
    21    30    31    1
    22    31    32   ar
    23    32    33   ar
    24    33    34   ar
    25    34    35    1
    26    34    36   ar
    27    36    37   ar
    28    21    22    1
    29    22    23   ar
    30    23    24   ar
    31    24    25   ar
    32    25    26   ar
    33    26    28    1
    34    28    29    3
    35    26    27   ar
    36    16    11   ar
    37    37    31   ar
    38    27    22   ar
    39     3     6    1
@<TRIPOS>MOLECULE
*****
 37 39 0 0 0
SMALL
GASTEIGER

@<TRIPOS>ATOM
      1 C         143.5898  138.8450  165.3687 C.3     1  UNL1        0.0216
      2 C         142.5737  139.9484  165.3559 C.3     1  UNL1        0.0760
      3 N         141.4906  139.9587  164.3182 N.am    1  UNL1       -0.3028
      4 C         140.0904  139.5718  164.6918 C.2     1  UNL1        0.2587
      5 O         139.7731  139.1747  166.1030 O.2     1  UNL1       -0.2714
      6 H         141.6989  140.2193  163.3920 H       1  UNL1        0.1495
      7 C         139.0073  139.5821  163.6540 C.3     1  UNL1        0.2022
      8 C         139.8865  138.7943  162.7286 C.3     1  UNL1        0.0532
      9 C         138.1280  140.3698  164.5793 C.3     1  UNL1        0.0532
     10 O         137.9243  139.5923  162.6162 O.3     1  UNL1       -0.4586
     11 C         138.0796  140.4251  161.3782 C.ar    1  UNL1        0.2251
     12 C         138.4542  141.8732  161.4906 C.ar    1  UNL1        0.0577
     13 C         138.6095  142.7058  160.2526 C.ar    1  UNL1        0.0102
     14 C         138.3902  142.0904  158.9024 C.ar    1  UNL1        0.0907
     15 C         138.0157  140.6423  158.7901 C.ar    1  UNL1        0.1059
     16 N         137.8604  139.8096  160.0280 N.ar    1  UNL1       -0.2102
     17 C         138.5456  142.9232  157.6644 C.3     1  UNL1        0.4200
     18 F         138.7009  143.7558  156.4265 F       1  UNL1       -0.1658
     19 F         139.5467  143.7878  158.3716 F       1  UNL1       -0.1658
     20 F         137.5445  142.0585  156.9572 F       1  UNL1       -0.1658
     21 C         142.6406  141.0415  166.3809 C.3     1  UNL1        0.0446
     22 C         142.1791  140.7828  167.7845 C.ar    1  UNL1       -0.0199
     23 C         142.5912  139.5246  168.4896 C.ar    1  UNL1       -0.0042
     24 C         142.1297  139.2659  169.8932 C.ar    1  UNL1        0.0004
     25 C         141.2562  140.2654  170.5917 C.ar    1  UNL1        0.0103
     26 C         140.8441  141.5236  169.8866 C.ar    1  UNL1        0.0681
     27 C         141.3056  141.7823  168.4830 C.ar    1  UNL1        0.0061
     28 C         139.9705  142.5231  170.5852 C.1     1  UNL1        0.1004
     29 N         139.0970  143.5226  171.2836 N.1     1  UNL1       -0.1908
     30 C         143.1691  142.3933  166.0023 C.3     1  UNL1        0.0323
     31 C         142.3856  143.2713  165.0720 C.ar    1  UNL1       -0.0218
     32 C         143.0987  144.1058  164.0497 C.ar    1  UNL1       -0.0034
     33 C         142.3153  144.9838  163.1195 C.ar    1  UNL1        0.0111
     34 C         140.8188  145.0271  163.2115 C.ar    1  UNL1        0.0577
     35 CL        140.0353  145.9051  162.2812 Cl      1  UNL1       -0.0822
     36 C         140.1057  144.1926  164.2337 C.ar    1  UNL1        0.0111
     37 C         140.8891  143.3147  165.1640 C.ar    1  UNL1       -0.0034
@<TRIPOS>BOND
     1     2     1    1
     2     2     3    1
     3     3     4   am
     4     4     5    2
     5     4     7    1
     6     7     8    1
     7     7     9    1
     8     7    10    1
     9    10    11    1
    10    11    12   ar
    11    12    13   ar
    12    13    14   ar
    13    14    17    1
    14    17    18    1
    15    17    19    1
    16    17    20    1
    17    14    15   ar
    18    15    16   ar
    19     2    21    1
    20    21    30    1
    21    30    31    1
    22    31    32   ar
    23    32    33   ar
    24    33    34   ar
    25    34    35    1
    26    34    36   ar
    27    36    37   ar
    28    21    22    1
    29    22    23   ar
    30    23    24   ar
    31    24    25   ar
    32    25    26   ar
    33    26    28    1
    34    28    29    3
    35    26    27   ar
    36    16    11   ar
    37    37    31   ar
    38    27    22   ar
    39     3     6    1
@<TRIPOS>MOLECULE
*****
 37 39 0 0 0
SMALL
GASTEIGER

@<TRIPOS>ATOM
      1 C         138.8594  137.6480  164.5534 C.3     1  UNL1        0.0216
      2 C         139.4955  138.9848  164.3122 C.3     1  UNL1        0.0760
      3 N         140.0913  139.3012  162.9725 N.am    1  UNL1       -0.3028
      4 C         139.2068  139.7377  161.8424 C.2     1  UNL1        0.2587
      5 O         137.7264  139.8580  162.0521 O.2     1  UNL1       -0.2714
      6 H         141.0630  139.2222  162.8348 H       1  UNL1        0.1495
      7 C         139.8027  140.0541  160.5027 C.3     1  UNL1        0.2022
      8 C         139.3417  138.7243  159.9838 C.3     1  UNL1        0.0532
      9 C         140.2636  141.3838  161.0216 C.3     1  UNL1        0.0532
     10 O         140.3985  140.3703  159.1629 O.3     1  UNL1       -0.4586
     11 C         139.7489  141.3899  158.2749 C.ar    1  UNL1        0.2251
     12 C         140.5942  142.3534  157.4959 C.ar    1  UNL1        0.0577
     13 C         139.9445  143.3729  156.6079 C.ar    1  UNL1        0.0102
     14 C         138.4495  143.4288  156.4990 C.ar    1  UNL1        0.0907
     15 C         137.6042  142.4653  157.2780 C.ar    1  UNL1        0.1059
     16 N         138.2539  141.4458  158.1660 N.ar    1  UNL1       -0.2102
     17 C         137.7998  144.4484  155.6110 C.3     1  UNL1        0.4200
     18 F         137.1502  145.4679  154.7230 F       1  UNL1       -0.1658
     19 F         136.5425  143.6307  155.5919 F       1  UNL1       -0.1658
     20 F         139.0571  145.2661  155.6301 F       1  UNL1       -0.1658
     21 C         139.5358  140.0054  165.4107 C.3     1  UNL1        0.0446
     22 C         140.5381  139.8752  166.5191 C.ar    1  UNL1       -0.0199
     23 C         141.8837  139.2710  166.2463 C.ar    1  UNL1       -0.0042
     24 C         142.8860  139.1408  167.3545 C.ar    1  UNL1        0.0004
     25 C         142.5428  139.6147  168.7356 C.ar    1  UNL1        0.0103
     26 C         141.1972  140.2189  169.0085 C.ar    1  UNL1        0.0681
     27 C         140.1949  140.3491  167.9002 C.ar    1  UNL1        0.0061
     28 C         140.8540  140.6929  170.3897 C.1     1  UNL1        0.1004
     29 N         140.5108  141.1668  171.7708 N.1     1  UNL1       -0.1908
     30 C         138.5737  141.1562  165.4009 C.3     1  UNL1        0.0323
     31 C         138.8730  142.3770  164.5822 C.ar    1  UNL1       -0.0218
     32 C         137.8077  142.9768  163.7131 C.ar    1  UNL1       -0.0034
     33 C         138.1068  144.1975  162.8944 C.ar    1  UNL1        0.0111
     34 C         139.4713  144.8184  162.9448 C.ar    1  UNL1        0.0577
     35 CL        139.7706  146.0392  162.1261 Cl      1  UNL1       -0.0822
     36 C         140.5367  144.2186  163.8139 C.ar    1  UNL1        0.0111
     37 C         140.2375  142.9979  164.6326 C.ar    1  UNL1       -0.0034
@<TRIPOS>BOND
     1     2     1    1
     2     2     3    1
     3     3     4   am
     4     4     5    2
     5     4     7    1
     6     7     8    1
     7     7     9    1
     8     7    10    1
     9    10    11    1
    10    11    12   ar
    11    12    13   ar
    12    13    14   ar
    13    14    17    1
    14    17    18    1
    15    17    19    1
    16    17    20    1
    17    14    15   ar
    18    15    16   ar
    19     2    21    1
    20    21    30    1
    21    30    31    1
    22    31    32   ar
    23    32    33   ar
    24    33    34   ar
    25    34    35    1
    26    34    36   ar
    27    36    37   ar
    28    21    22    1
    29    22    23   ar
    30    23    24   ar
    31    24    25   ar
    32    25    26   ar
    33    26    28    1
    34    28    29    3
    35    26    27   ar
    36    16    11   ar
    37    37    31   ar
    38    27    22   ar
    39     3     6    1
@<TRIPOS>MOLECULE
*****
 37 39 0 0 0
SMALL
GASTEIGER

@<TRIPOS>ATOM
      1 C         137.9706  138.6661  166.3272 C.3     1  UNL1        0.0216
      2 C         138.8342  139.6700  165.6227 C.3     1  UNL1        0.0760
      3 N         138.7145  139.8521  164.1386 N.am    1  UNL1       -0.3028
      4 C         139.6574  139.1373  163.2167 C.2     1  UNL1        0.2587
      5 O         140.7201  138.2404  163.7789 O.2     1  UNL1       -0.2714
      6 H         138.0169  140.4408  163.7696 H       1  UNL1        0.1495
      7 C         139.5376  139.3195  161.7326 C.3     1  UNL1        0.2022
      8 C         138.8607  137.9853  161.6236 C.3     1  UNL1        0.0532
      9 C         140.2144  140.6536  161.8417 C.3     1  UNL1        0.0532
     10 O         139.4178  139.5016  160.2486 O.3     1  UNL1       -0.4586
     11 C         140.3580  138.7835  159.3264 C.ar    1  UNL1        0.2251
     12 C         139.8819  138.3205  157.9815 C.ar    1  UNL1        0.0577
     13 C         140.8222  137.6025  157.0594 C.ar    1  UNL1        0.0102
     14 C         142.2385  137.3473  157.4823 C.ar    1  UNL1        0.0907
     15 C         142.7146  137.8102  158.8273 C.ar    1  UNL1        0.1059
     16 N         141.7744  138.5283  159.7494 N.ar    1  UNL1       -0.2102
     17 C         143.1788  136.6292  156.5602 C.3     1  UNL1        0.4200
     18 F         144.1191  135.9111  155.6381 F       1  UNL1       -0.1658
     19 F         142.5670  135.3184  156.9571 F       1  UNL1       -0.1658
     20 F         143.7906  137.9399  156.1634 F       1  UNL1       -0.1658
     21 C         139.8176  140.4918  166.4021 C.3     1  UNL1        0.0446
     22 C         140.6596  141.5171  165.7022 C.ar    1  UNL1       -0.0199
     23 C         140.0875  142.8666  165.3837 C.ar    1  UNL1       -0.0042
     24 C         140.9294  143.8920  164.6838 C.ar    1  UNL1        0.0004
     25 C         142.3435  143.5677  164.3025 C.ar    1  UNL1        0.0103
     26 C         142.9155  142.2182  164.6211 C.ar    1  UNL1        0.0681
     27 C         142.0736  141.1929  165.3210 C.ar    1  UNL1        0.0061
     28 C         144.3296  141.8940  164.2398 C.1     1  UNL1        0.1004
     29 N         145.7436  141.5699  163.8584 N.1     1  UNL1       -0.1908
     30 C         139.9590  140.2883  167.8815 C.3     1  UNL1        0.0323
     31 C         140.8778  141.1692  168.6753 C.ar    1  UNL1       -0.0218
     32 C         140.4072  142.5138  169.1450 C.ar    1  UNL1       -0.0034
     33 C         141.3259  143.3947  169.9387 C.ar    1  UNL1        0.0111
     34 C         142.7150  142.9310  170.2628 C.ar    1  UNL1        0.0577
     35 CL        143.6338  143.8119  171.0566 Cl      1  UNL1       -0.0822
     36 C         143.1856  141.5863  169.7932 C.ar    1  UNL1        0.0111
     37 C         142.2669  140.7055  168.9994 C.ar    1  UNL1       -0.0034
@<TRIPOS>BOND
     1     2     1    1
     2     2     3    1
     3     3     4   am
     4     4     5    2
     5     4     7    1
     6     7     8    1
     7     7     9    1
     8     7    10    1
     9    10    11    1
    10    11    12   ar
    11    12    13   ar
    12    13    14   ar
    13    14    17    1
    14    17    18    1
    15    17    19    1
    16    17    20    1
    17    14    15   ar
    18    15    16   ar
    19     2    21    1
    20    21    30    1
    21    30    31    1
    22    31    32   ar
    23    32    33   ar
    24    33    34   ar
    25    34    35    1
    26    34    36   ar
    27    36    37   ar
    28    21    22    1
    29    22    23   ar
    30    23    24   ar
    31    24    25   ar
    32    25    26   ar
    33    26    28    1
    34    28    29    3
    35    26    27   ar
    36    16    11   ar
    37    37    31   ar
    38    27    22   ar
    39     3     6    1
@<TRIPOS>MOLECULE
*****
 37 39 0 0 0
SMALL
GASTEIGER

@<TRIPOS>ATOM
      1 C         139.0111  144.4542  165.5104 C.3     1  UNL1        0.0216
      2 C         140.0152  143.6371  164.7527 C.3     1  UNL1        0.0760
      3 N         140.0941  143.7429  163.2585 N.am    1  UNL1       -0.3028
      4 C         140.9754  144.7786  162.6255 C.2     1  UNL1        0.2587
      5 O         141.7778  145.7084  163.4866 O.2     1  UNL1       -0.2714
      6 H         139.5675  143.1327  162.6933 H       1  UNL1        0.1495
      7 C         141.0543  144.8843  161.1313 C.3     1  UNL1        0.2022
      8 C         140.0098  145.9606  161.1523 C.3     1  UNL1        0.0532
      9 C         142.0988  143.8080  161.1102 C.3     1  UNL1        0.0532
     10 O         141.1332  144.9901  159.6371 O.3     1  UNL1       -0.4586
     11 C         140.1055  144.3101  158.7817 C.ar    1  UNL1        0.2251
     12 C         139.9673  144.6835  157.3356 C.ar    1  UNL1        0.0577
     13 C         138.9397  144.0035  156.4803 C.ar    1  UNL1        0.0102
     14 C         138.0503  142.9500  157.0712 C.ar    1  UNL1        0.0907
     15 C         138.1885  142.5765  158.5174 C.ar    1  UNL1        0.1059
     16 N         139.2161  143.2566  159.3726 N.ar    1  UNL1       -0.2102
     17 C         137.0227  142.2699  156.2159 C.3     1  UNL1        0.4200
     18 F         135.9951  141.5900  155.3606 F       1  UNL1       -0.1658
     19 F         137.4355  140.9412  156.7762 F       1  UNL1       -0.1658
     20 F         136.6099  143.5986  155.6555 F       1  UNL1       -0.1658
     21 C         140.9403  142.7143  165.4891 C.3     1  UNL1        0.0446
     22 C         140.4120  141.8457  166.5921 C.ar    1  UNL1       -0.0199
     23 C         139.6597  140.5903  166.2631 C.ar    1  UNL1       -0.0042
     24 C         139.1314  139.7217  167.3660 C.ar    1  UNL1        0.0004
     25 C         139.3553  140.1085  168.7978 C.ar    1  UNL1        0.0103
     26 C         140.1075  141.3639  169.1268 C.ar    1  UNL1        0.0681
     27 C         140.6359  142.2325  168.0239 C.ar    1  UNL1        0.0061
     28 C         140.3314  141.7507  170.5587 C.1     1  UNL1        0.1004
     29 N         140.5553  142.1374  171.9906 N.1     1  UNL1       -0.1908
     30 C         142.3938  142.6599  165.1226 C.3     1  UNL1        0.0323
     31 C         142.8645  141.7110  164.0604 C.ar    1  UNL1       -0.0218
     32 C         141.9128  140.7118  163.4721 C.ar    1  UNL1       -0.0034
     33 C         142.3834  139.7630  162.4100 C.ar    1  UNL1        0.0111
     34 C         143.8056  139.8132  161.9361 C.ar    1  UNL1        0.0577
     35 CL        144.2763  138.8643  160.8740 Cl      1  UNL1       -0.0822
     36 C         144.7573  140.8124  162.5244 C.ar    1  UNL1        0.0111
     37 C         144.2867  141.7613  163.5865 C.ar    1  UNL1       -0.0034
@<TRIPOS>BOND
     1     2     1    1
     2     2     3    1
     3     3     4   am
     4     4     5    2
     5     4     7    1
     6     7     8    1
     7     7     9    1
     8     7    10    1
     9    10    11    1
    10    11    12   ar
    11    12    13   ar
    12    13    14   ar
    13    14    17    1
    14    17    18    1
    15    17    19    1
    16    17    20    1
    17    14    15   ar
    18    15    16   ar
    19     2    21    1
    20    21    30    1
    21    30    31    1
    22    31    32   ar
    23    32    33   ar
    24    33    34   ar
    25    34    35    1
    26    34    36   ar
    27    36    37   ar
    28    21    22    1
    29    22    23   ar
    30    23    24   ar
    31    24    25   ar
    32    25    26   ar
    33    26    28    1
    34    28    29    3
    35    26    27   ar
    36    16    11   ar
    37    37    31   ar
    38    27    22   ar
    39     3     6    1
@<TRIPOS>MOLECULE
*****
 37 39 0 0 0
SMALL
GASTEIGER

@<TRIPOS>ATOM
      1 C         138.8037  137.7968  165.4384 C.3     1  UNL1        0.0216
      2 C         138.8356  139.1534  164.7991 C.3     1  UNL1        0.0760
      3 N         138.6722  139.2867  163.3141 N.am    1  UNL1       -0.3028
      4 C         139.8819  139.3705  162.4310 C.2     1  UNL1        0.2587
      5 O         141.2548  139.3211  163.0330 O.2     1  UNL1       -0.2714
      6 H         137.7711  139.3192  162.9189 H       1  UNL1        0.1495
      7 C         139.7185  139.5039  160.9458 C.3     1  UNL1        0.2022
      8 C         140.4158  140.8312  160.9883 C.3     1  UNL1        0.0532
      9 C         139.0211  138.1765  160.9034 C.3     1  UNL1        0.0532
     10 O         139.5551  139.6372  159.4608 O.3     1  UNL1       -0.4586
     11 C         140.2981  138.7163  158.5388 C.ar    1  UNL1        0.2251
     12 C         141.7552  138.4423  158.7664 C.ar    1  UNL1        0.0577
     13 C         142.4981  137.5215  157.8444 C.ar    1  UNL1        0.0102
     14 C         141.7839  136.8746  156.6949 C.ar    1  UNL1        0.0907
     15 C         140.3269  137.1486  156.4672 C.ar    1  UNL1        0.1059
     16 N         139.5840  138.0694  157.3892 N.ar    1  UNL1       -0.2102
     17 C         142.5269  135.9537  155.7729 C.3     1  UNL1        0.4200
     18 F         143.2699  135.0329  154.8509 F       1  UNL1       -0.1658
     19 F         143.7501  136.8125  155.9007 F       1  UNL1       -0.1658
     20 F         141.3038  135.0950  155.6450 F       1  UNL1       -0.1658
     21 C         139.0308  140.3767  165.6449 C.3     1  UNL1        0.0446
     22 C         139.0797  141.7319  165.0037 C.ar    1  UNL1       -0.0199
     23 C         137.8084  142.4129  164.5915 C.ar    1  UNL1       -0.0042
     24 C         137.8573  143.7680  163.9503 C.ar    1  UNL1        0.0004
     25 C         139.1775  144.4422  163.7214 C.ar    1  UNL1        0.0103
     26 C         140.4488  143.7612  164.1337 C.ar    1  UNL1        0.0681
     27 C         140.4000  142.4061  164.7748 C.ar    1  UNL1        0.0061
     28 C         141.7691  144.4355  163.9048 C.1     1  UNL1        0.1004
     29 N         143.0893  145.1097  163.6759 N.1     1  UNL1       -0.1908
     30 C         139.1771  140.2448  167.1320 C.3     1  UNL1        0.0323
     31 C         140.4020  140.7767  167.8152 C.ar    1  UNL1       -0.0218
     32 C         140.3740  142.1322  168.4569 C.ar    1  UNL1       -0.0034
     33 C         141.5988  142.6641  169.1400 C.ar    1  UNL1        0.0111
     34 C         142.8518  141.8404  169.1815 C.ar    1  UNL1        0.0577
     35 CL        144.0767  142.3723  169.8647 Cl      1  UNL1       -0.0822
     36 C         142.8798  140.4849  168.5398 C.ar    1  UNL1        0.0111
     37 C         141.6549  139.9530  167.8566 C.ar    1  UNL1       -0.0034
@<TRIPOS>BOND
     1     2     1    1
     2     2     3    1
     3     3     4   am
     4     4     5    2
     5     4     7    1
     6     7     8    1
     7     7     9    1
     8     7    10    1
     9    10    11    1
    10    11    12   ar
    11    12    13   ar
    12    13    14   ar
    13    14    17    1
    14    17    18    1
    15    17    19    1
    16    17    20    1
    17    14    15   ar
    18    15    16   ar
    19     2    21    1
    20    21    30    1
    21    30    31    1
    22    31    32   ar
    23    32    33   ar
    24    33    34   ar
    25    34    35    1
    26    34    36   ar
    27    36    37   ar
    28    21    22    1
    29    22    23   ar
    30    23    24   ar
    31    24    25   ar
    32    25    26   ar
    33    26    28    1
    34    28    29    3
    35    26    27   ar
    36    16    11   ar
    37    37    31   ar
    38    27    22   ar
    39     3     6    1
@<TRIPOS>MOLECULE
*****
 37 39 0 0 0
SMALL
GASTEIGER

@<TRIPOS>ATOM
      1 C         138.8516  137.2968  165.1910 C.3     1  UNL1        0.0216
      2 C         138.9049  138.6928  164.6449 C.3     1  UNL1        0.0760
      3 N         138.7520  138.9280  163.1714 N.am    1  UNL1       -0.3028
      4 C         139.9669  139.1118  162.3111 C.2     1  UNL1        0.2587
      5 O         141.3348  139.0603  162.9243 O.2     1  UNL1       -0.2714
      6 H         137.8541  138.9618  162.7689 H       1  UNL1        0.1495
      7 C         139.8139  139.3470  160.8375 C.3     1  UNL1        0.2022
      8 C         140.6206  140.6061  160.9548 C.3     1  UNL1        0.0532
      9 C         139.0072  138.0879  160.7202 C.3     1  UNL1        0.0532
     10 O         139.6609  139.5823  159.3640 O.3     1  UNL1       -0.4586
     11 C         140.3294  138.6637  158.3845 C.ar    1  UNL1        0.2251
     12 C         141.7910  138.3558  158.5220 C.ar    1  UNL1        0.0577
     13 C         142.4593  137.4373  157.5425 C.ar    1  UNL1        0.0102
     14 C         141.6661  136.8266  156.4254 C.ar    1  UNL1        0.0907
     15 C         140.2045  137.1345  156.2878 C.ar    1  UNL1        0.1059
     16 N         139.5361  138.0530  157.2674 N.ar    1  UNL1       -0.2102
     17 C         142.3345  135.9081  155.4458 C.3     1  UNL1        0.4200
     18 F         143.0029  134.9895  154.4663 F       1  UNL1       -0.1658
     19 F         140.9917  135.4546  154.9547 F       1  UNL1       -0.1658
     20 F         143.6773  136.3615  155.9369 F       1  UNL1       -0.1658
     21 C         139.1112  139.8536  165.5722 C.3     1  UNL1        0.0446
     22 C         140.2274  139.8242  166.5739 C.ar    1  UNL1       -0.0199
     23 C         141.6015  139.3946  166.1531 C.ar    1  UNL1       -0.0042
     24 C         142.7177  139.3652  167.1547 C.ar    1  UNL1        0.0004
     25 C         142.4597  139.7655  168.5771 C.ar    1  UNL1        0.0103
     26 C         141.0855  140.1951  168.9978 C.ar    1  UNL1        0.0681
     27 C         139.9693  140.2245  167.9962 C.ar    1  UNL1        0.0061
     28 C         140.8275  140.5954  170.4203 C.1     1  UNL1        0.1004
     29 N         140.5696  140.9956  171.8427 N.1     1  UNL1       -0.1908
     30 C         138.2012  141.0437  165.4979 C.3     1  UNL1        0.0323
     31 C         138.5988  142.2424  164.6883 C.ar    1  UNL1       -0.0218
     32 C         137.9514  142.4982  163.3596 C.ar    1  UNL1       -0.0034
     33 C         138.3488  143.6967  162.5500 C.ar    1  UNL1        0.0111
     34 C         139.3937  144.6394  163.0690 C.ar    1  UNL1        0.0577
     35 CL        139.7912  145.8380  162.2594 Cl      1  UNL1       -0.0822
     36 C         140.0411  144.3836  164.3977 C.ar    1  UNL1        0.0111
     37 C         139.6436  143.1851  165.2074 C.ar    1  UNL1       -0.0034
@<TRIPOS>BOND
     1     2     1    1
     2     2     3    1
     3     3     4   am
     4     4     5    2
     5     4     7    1
     6     7     8    1
     7     7     9    1
     8     7    10    1
     9    10    11    1
    10    11    12   ar
    11    12    13   ar
    12    13    14   ar
    13    14    17    1
    14    17    18    1
    15    17    19    1
    16    17    20    1
    17    14    15   ar
    18    15    16   ar
    19     2    21    1
    20    21    30    1
    21    30    31    1
    22    31    32   ar
    23    32    33   ar
    24    33    34   ar
    25    34    35    1
    26    34    36   ar
    27    36    37   ar
    28    21    22    1
    29    22    23   ar
    30    23    24   ar
    31    24    25   ar
    32    25    26   ar
    33    26    28    1
    34    28    29    3
    35    26    27   ar
    36    16    11   ar
    37    37    31   ar
    38    27    22   ar
    39     3     6    1
@<TRIPOS>MOLECULE
*****
 37 39 0 0 0
SMALL
GASTEIGER

@<TRIPOS>ATOM
      1 C         144.7854  139.2728  163.8377 C.3     1  UNL1        0.0216
      2 C         144.0517  140.5209  163.4456 C.3     1  UNL1        0.0760
      3 N         144.0918  140.9994  162.0245 N.am    1  UNL1       -0.3028
      4 C         143.0529  140.5352  161.0472 C.2     1  UNL1        0.2587
      5 O         141.9738  139.5926  161.4910 O.2     1  UNL1       -0.2714
      6 H         144.8001  141.6181  161.7332 H       1  UNL1        0.1495
      7 C         143.0930  141.0137  159.6261 C.3     1  UNL1        0.2022
      8 C         142.8377  142.4166  160.0913 C.3     1  UNL1        0.0532
      9 C         143.3483  139.6107  159.1609 C.3     1  UNL1        0.0532
     10 O         143.1331  141.4922  158.2051 O.3     1  UNL1       -0.4586
     11 C         144.4450  141.5941  157.4848 C.ar    1  UNL1        0.2251
     12 C         144.7152  140.7255  156.2921 C.ar    1  UNL1        0.0577
     13 C         146.0269  140.8275  155.5718 C.ar    1  UNL1        0.0102
     14 C         147.0685  141.7980  156.0442 C.ar    1  UNL1        0.0907
     15 C         146.7983  142.6666  157.2369 C.ar    1  UNL1        0.1059
     16 N         145.4865  142.5647  157.9571 N.ar    1  UNL1       -0.2102
     17 C         148.3803  141.9000  155.3239 C.3     1  UNL1        0.4200
     18 F         149.6921  142.0019  154.6036 F       1  UNL1       -0.1658
     19 F         147.6916  141.5962  154.0265 F       1  UNL1       -0.1658
     20 F         149.0691  142.2037  156.6213 F       1  UNL1       -0.1658
     21 C         143.2780  141.2907  164.4745 C.3     1  UNL1        0.0446
     22 C         142.7855  142.6730  164.1634 C.ar    1  UNL1       -0.0199
     23 C         143.7248  143.8397  164.2445 C.ar    1  UNL1       -0.0042
     24 C         143.2324  145.2220  163.9334 C.ar    1  UNL1        0.0004
     25 C         141.8008  145.4376  163.5413 C.ar    1  UNL1        0.0103
     26 C         140.8615  144.2709  163.4603 C.ar    1  UNL1        0.0681
     27 C         141.3539  142.8886  163.7713 C.ar    1  UNL1        0.0061
     28 C         139.4297  144.4866  163.0681 C.1     1  UNL1        0.1004
     29 N         137.9981  144.7022  162.6759 N.1     1  UNL1       -0.1908
     30 C         142.9966  140.6781  165.8145 C.3     1  UNL1        0.0323
     31 C         141.6294  140.1432  166.1224 C.ar    1  UNL1       -0.0218
     32 C         140.9594  139.2019  165.1659 C.ar    1  UNL1       -0.0034
     33 C         139.5923  138.6670  165.4738 C.ar    1  UNL1        0.0111
     34 C         138.8952  139.0734  166.7382 C.ar    1  UNL1        0.0577
     35 CL        137.5280  138.5385  167.0462 Cl      1  UNL1       -0.0822
     36 C         139.5652  140.0148  167.6947 C.ar    1  UNL1        0.0111
     37 C         140.9323  140.5497  167.3869 C.ar    1  UNL1       -0.0034
@<TRIPOS>BOND
     1     2     1    1
     2     2     3    1
     3     3     4   am
     4     4     5    2
     5     4     7    1
     6     7     8    1
     7     7     9    1
     8     7    10    1
     9    10    11    1
    10    11    12   ar
    11    12    13   ar
    12    13    14   ar
    13    14    17    1
    14    17    18    1
    15    17    19    1
    16    17    20    1
    17    14    15   ar
    18    15    16   ar
    19     2    21    1
    20    21    30    1
    21    30    31    1
    22    31    32   ar
    23    32    33   ar
    24    33    34   ar
    25    34    35    1
    26    34    36   ar
    27    36    37   ar
    28    21    22    1
    29    22    23   ar
    30    23    24   ar
    31    24    25   ar
    32    25    26   ar
    33    26    28    1
    34    28    29    3
    35    26    27   ar
    36    16    11   ar
    37    37    31   ar
    38    27    22   ar
    39     3     6    1
