@<TRIPOS>MOLECULE
*****
 36 38 0 0 0
SMALL
GASTEIGER

@<TRIPOS>ATOM
      1 C         138.5621  139.1109  162.6965 C.3     1  UNL1        0.1102
      2 C         139.0319  137.9094  163.4617 C.3     1  UNL1        0.0296
      3 C         139.0549  137.9371  164.9613 C.3     1  UNL1        0.0730
      4 N         138.6081  139.1664  165.6956 N.3     1  UNL1       -0.2689
      5 C         138.1383  140.3679  164.9304 C.3     1  UNL1        0.0730
      6 C         138.1153  140.3402  163.4309 C.3     1  UNL1        0.0296
      7 C         138.2043  139.9918  161.5363 C.2     1  UNL1        0.3177
      8 O         137.0562  139.6259  160.6430 O.2     1  UNL1       -0.2501
      9 C         138.4833  142.2560  160.2932 C.3     1  UNL1        0.2556
     10 O         138.9946  141.2384  161.2694 O.3     1  UNL1       -0.4444
     11 C         138.8846  138.1875  161.5593 C.3     1  UNL1        0.1002
     12 N         139.7317  138.6694  160.4190 N.am    1  UNL1       -0.3003
     13 C         141.1903  138.3228  160.3694 C.2     1  UNL1        0.2461
     14 O         141.8018  137.4943  161.4601 O.2     1  UNL1       -0.2701
     15 H         139.3303  139.2132  159.7031 H       1  UNL1        0.1498
     16 C         142.0373  138.8047  159.2291 C.ar    1  UNL1        0.0594
     17 C         142.7157  140.1400  159.3107 C.ar    1  UNL1        0.0416
     18 C         143.5627  140.6220  158.1704 C.ar    1  UNL1        0.1419
     19 C         143.7314  139.7686  156.9485 C.ar    1  UNL1        0.0738
     20 C         143.0530  138.4332  156.8668 C.ar    1  UNL1        0.1419
     21 C         142.2060  137.9512  158.0071 C.ar    1  UNL1        0.0416
     22 O         144.2411  141.9574  158.2521 O.3     1  UNL1       -0.4713
     23 C         143.4305  143.1971  158.4885 C.3     1  UNL1        0.2525
     24 O         143.2217  137.5798  155.6448 O.3     1  UNL1       -0.4713
     25 C         143.9806  136.2887  155.7306 C.3     1  UNL1        0.2525
     26 C         138.6311  139.1941  167.1952 C.3     1  UNL1        0.0991
     27 C         139.6175  140.0658  167.9142 C.ar    1  UNL1       -0.0062
     28 C         140.8952  140.4677  167.2387 C.ar    1  UNL1       -0.0030
     29 C         141.8817  141.3395  167.9576 C.ar    1  UNL1        0.0036
     30 C         141.5906  141.8093  169.3521 C.ar    1  UNL1        0.0714
     31 C         140.3130  141.4074  170.0276 C.ar    1  UNL1        0.0036
     32 C         139.3265  140.5357  169.3086 C.ar    1  UNL1       -0.0030
     33 C         142.5770  142.6811  170.0710 C.3     1  UNL1        0.4186
     34 F         143.5636  143.5527  170.7900 F       1  UNL1       -0.1659
     35 F         143.5850  141.5707  170.0342 F       1  UNL1       -0.1659
     36 F         141.5692  143.7913  170.1079 F       1  UNL1       -0.1659
@<TRIPOS>BOND
     1     9    10    1
     2    10     7    1
     3     7     8    2
     4     7     1    1
     5     1    11    1
     6    11    12    1
     7    12    13   am
     8    13    14    2
     9    13    16    1
    10    16    17   ar
    11    17    18   ar
    12    18    22    1
    13    22    23    1
    14    18    19   ar
    15    19    20   ar
    16    20    24    1
    17    24    25    1
    18    20    21   ar
    19     1     2    1
    20     2     3    1
    21     3     4    1
    22     4    26    1
    23    26    27    1
    24    27    28   ar
    25    28    29   ar
    26    29    30   ar
    27    30    33    1
    28    33    34    1
    29    33    35    1
    30    33    36    1
    31    30    31   ar
    32    31    32   ar
    33     4     5    1
    34     5     6    1
    35     6     1    1
    36    21    16   ar
    37    32    27   ar
    38    12    15    1
@<TRIPOS>MOLECULE
*****
 36 38 0 0 0
SMALL
GASTEIGER

@<TRIPOS>ATOM
      1 C         138.4088  139.1286  162.6307 C.3     1  UNL1        0.1102
      2 C         138.9038  137.9163  163.3622 C.3     1  UNL1        0.0296
      3 C         138.9731  137.9207  164.8606 C.3     1  UNL1        0.0730
      4 N         138.5475  139.1376  165.6275 N.3     1  UNL1       -0.2689
      5 C         138.0525  140.3499  164.8960 C.3     1  UNL1        0.0730
      6 C         137.9832  140.3455  163.3976 C.3     1  UNL1        0.0296
      7 C         138.0141  140.0268  161.4960 C.2     1  UNL1        0.3177
      8 O         136.9265  139.6081  160.5516 O.2     1  UNL1       -0.2501
      9 C         138.5444  142.0974  160.0192 C.3     1  UNL1        0.2556
     10 O         138.7069  141.3434  161.3057 O.3     1  UNL1       -0.4444
     11 C         138.6974  138.2237  161.4698 C.3     1  UNL1        0.1002
     12 N         139.5645  138.7022  160.3433 N.am    1  UNL1       -0.3003
     13 C         141.0146  138.3207  160.2987 C.2     1  UNL1        0.2461
     14 O         141.5974  137.4607  161.3807 O.2     1  UNL1       -0.2701
     15 H         139.1820  139.2667  159.6332 H       1  UNL1        0.1498
     16 C         141.8817  138.7992  159.1722 C.ar    1  UNL1        0.0594
     17 C         142.0757  137.9402  157.9580 C.ar    1  UNL1        0.0416
     18 C         142.9428  138.4187  156.8314 C.ar    1  UNL1        0.1419
     19 C         143.6160  139.7563  156.9191 C.ar    1  UNL1        0.0738
     20 C         143.4220  140.6155  158.1334 C.ar    1  UNL1        0.1419
     21 C         142.5548  140.1369  159.2599 C.ar    1  UNL1        0.0416
     22 O         143.1368  137.5596  155.6172 O.3     1  UNL1       -0.4713
     23 C         144.0570  136.3764  155.6748 C.3     1  UNL1        0.2525
     24 O         144.0951  141.9530  158.2210 O.3     1  UNL1       -0.4713
     25 C         144.6069  142.4501  159.5405 C.3     1  UNL1        0.2525
     26 C         138.6168  139.1420  167.1259 C.3     1  UNL1        0.0991
     27 C         139.6353  139.9910  167.8271 C.ar    1  UNL1       -0.0062
     28 C         139.3794  140.4676  169.2262 C.ar    1  UNL1       -0.0030
     29 C         140.3980  141.3166  169.9275 C.ar    1  UNL1        0.0036
     30 C         141.6725  141.6891  169.2296 C.ar    1  UNL1        0.0714
     31 C         141.9283  141.2125  167.8305 C.ar    1  UNL1        0.0036
     32 C         140.9098  140.3635  167.1293 C.ar    1  UNL1       -0.0030
     33 C         142.6910  142.5381  169.9308 C.3     1  UNL1        0.4186
     34 F         143.7095  143.3872  170.6320 F       1  UNL1       -0.1659
     35 F         141.7094  143.6710  169.9847 F       1  UNL1       -0.1659
     36 F         143.6725  141.4052  169.8768 F       1  UNL1       -0.1659
@<TRIPOS>BOND
     1     9    10    1
     2    10     7    1
     3     7     8    2
     4     7     1    1
     5     1    11    1
     6    11    12    1
     7    12    13   am
     8    13    14    2
     9    13    16    1
    10    16    17   ar
    11    17    18   ar
    12    18    22    1
    13    22    23    1
    14    18    19   ar
    15    19    20   ar
    16    20    24    1
    17    24    25    1
    18    20    21   ar
    19     1     2    1
    20     2     3    1
    21     3     4    1
    22     4    26    1
    23    26    27    1
    24    27    28   ar
    25    28    29   ar
    26    29    30   ar
    27    30    33    1
    28    33    34    1
    29    33    35    1
    30    33    36    1
    31    30    31   ar
    32    31    32   ar
    33     4     5    1
    34     5     6    1
    35     6     1    1
    36    21    16   ar
    37    32    27   ar
    38    12    15    1
@<TRIPOS>MOLECULE
*****
 36 38 0 0 0
SMALL
GASTEIGER

@<TRIPOS>ATOM
      1 C         142.1726  138.9902  158.9233 C.3     1  UNL1        0.1102
      2 C         140.8842  138.3709  158.4691 C.3     1  UNL1        0.0296
      3 C         139.6202  138.6207  159.2371 C.3     1  UNL1        0.0730
      4 N         139.6447  139.4898  160.4595 N.3     1  UNL1       -0.2689
      5 C         140.9331  140.1091  160.9137 C.3     1  UNL1        0.0730
      6 C         142.1971  139.8594  160.1456 C.3     1  UNL1        0.0296
      7 C         143.6281  139.3513  158.9571 C.2     1  UNL1        0.3177
      8 O         144.4285  139.1238  160.2052 O.2     1  UNL1       -0.2501
      9 C         144.5191  141.4188  157.6603 C.3     1  UNL1        0.2556
     10 O         144.2833  139.9398  157.7429 O.3     1  UNL1       -0.4444
     11 C         142.6536  138.2465  157.7127 C.3     1  UNL1        0.1002
     12 N         142.5025  136.7560  157.6391 N.am    1  UNL1       -0.3003
     13 C         143.3538  135.9616  156.6934 C.2     1  UNL1        0.2461
     14 O         144.3562  136.6579  155.8214 O.2     1  UNL1       -0.2701
     15 H         141.8446  136.2990  158.2115 H       1  UNL1        0.1498
     16 C         143.2028  134.4711  156.6198 C.ar    1  UNL1        0.0594
     17 C         144.1176  133.5845  157.4116 C.ar    1  UNL1        0.0416
     18 C         143.9665  132.0939  157.3380 C.ar    1  UNL1        0.1419
     19 C         142.9006  131.4900  156.4725 C.ar    1  UNL1        0.0738
     20 C         141.9857  132.3766  155.6807 C.ar    1  UNL1        0.1419
     21 C         142.1368  133.8671  155.7543 C.ar    1  UNL1        0.0416
     22 O         144.8814  131.2073  158.1298 O.3     1  UNL1       -0.4713
     23 C         144.6255  129.7307  158.1930 C.3     1  UNL1        0.2525
     24 O         140.9198  131.7726  154.8153 O.3     1  UNL1       -0.4713
     25 C         140.7249  130.2855  154.7931 C.3     1  UNL1        0.2525
     26 C         138.3807  139.7396  161.2275 C.3     1  UNL1        0.0991
     27 C         138.3877  139.6716  162.7259 C.ar    1  UNL1       -0.0062
     28 C         138.1015  140.9026  163.5340 C.ar    1  UNL1       -0.0030
     29 C         138.1085  140.8346  165.0324 C.ar    1  UNL1        0.0036
     30 C         138.4017  139.5356  165.7229 C.ar    1  UNL1        0.0714
     31 C         138.6879  138.3046  164.9149 C.ar    1  UNL1        0.0036
     32 C         138.6809  138.3727  163.4165 C.ar    1  UNL1       -0.0030
     33 C         138.4087  139.4676  167.2213 C.3     1  UNL1        0.4186
     34 F         138.4156  139.3995  168.7197 F       1  UNL1       -0.1659
     35 F         137.2140  138.5612  167.1857 F       1  UNL1       -0.1659
     36 F         139.6033  140.3739  167.2569 F       1  UNL1       -0.1659
@<TRIPOS>BOND
     1     9    10    1
     2    10     7    1
     3     7     8    2
     4     7     1    1
     5     1    11    1
     6    11    12    1
     7    12    13   am
     8    13    14    2
     9    13    16    1
    10    16    17   ar
    11    17    18   ar
    12    18    22    1
    13    22    23    1
    14    18    19   ar
    15    19    20   ar
    16    20    24    1
    17    24    25    1
    18    20    21   ar
    19     1     2    1
    20     2     3    1
    21     3     4    1
    22     4    26    1
    23    26    27    1
    24    27    28   ar
    25    28    29   ar
    26    29    30   ar
    27    30    33    1
    28    33    34    1
    29    33    35    1
    30    33    36    1
    31    30    31   ar
    32    31    32   ar
    33     4     5    1
    34     5     6    1
    35     6     1    1
    36    21    16   ar
    37    32    27   ar
    38    12    15    1
@<TRIPOS>MOLECULE
*****
 36 38 0 0 0
SMALL
GASTEIGER

@<TRIPOS>ATOM
      1 C         138.2076  140.0376  162.6603 C.3     1  UNL1        0.1102
      2 C         138.1610  141.1754  163.6366 C.3     1  UNL1        0.0296
      3 C         138.3949  140.9212  165.0963 C.3     1  UNL1        0.0730
      4 N         138.6753  139.5291  165.5796 N.3     1  UNL1       -0.2689
      5 C         138.7219  138.3913  164.6033 C.3     1  UNL1        0.0730
      6 C         138.4880  138.6456  163.1436 C.3     1  UNL1        0.0296
      7 C         138.1498  139.2935  161.3591 C.2     1  UNL1        0.3177
      8 O         137.0117  139.5286  160.4107 O.2     1  UNL1       -0.2501
      9 C         140.0918  138.5501  159.8016 C.3     1  UNL1        0.2556
     10 O         139.2300  138.3144  161.0065 O.3     1  UNL1       -0.4444
     11 C         137.9070  141.1712  161.7251 C.3     1  UNL1        0.1002
     12 N         138.9551  141.6486  160.7640 N.am    1  UNL1       -0.3003
     13 C         139.3003  143.1067  160.6941 C.2     1  UNL1        0.2461
     14 O         138.5975  144.0873  161.5854 O.2     1  UNL1       -0.2701
     15 H         139.4163  141.0049  160.1790 H       1  UNL1        0.1498
     16 C         140.3483  143.5841  159.7330 C.ar    1  UNL1        0.0594
     17 C         141.6607  142.8643  159.6360 C.ar    1  UNL1        0.0416
     18 C         142.7087  143.3416  158.6749 C.ar    1  UNL1        0.1419
     19 C         142.4443  144.5388  157.8107 C.ar    1  UNL1        0.0738
     20 C         141.1319  145.2587  157.9077 C.ar    1  UNL1        0.1419
     21 C         140.0839  144.7813  158.8688 C.ar    1  UNL1        0.0416
     22 O         144.0212  142.6218  158.5780 O.3     1  UNL1       -0.4713
     23 C         144.0577  141.1224  158.6013 C.3     1  UNL1        0.2525
     24 O         140.8675  146.4558  157.0435 O.3     1  UNL1       -0.4713
     25 C         139.5242  146.6346  156.4002 C.3     1  UNL1        0.2525
     26 C         138.9092  139.2749  167.0393 C.3     1  UNL1        0.0991
     27 C         139.8683  140.1361  167.8063 C.ar    1  UNL1       -0.0062
     28 C         141.2272  140.4304  167.2434 C.ar    1  UNL1       -0.0030
     29 C         142.1864  141.2917  168.0105 C.ar    1  UNL1        0.0036
     30 C         141.7866  141.8587  169.3404 C.ar    1  UNL1        0.0714
     31 C         140.4277  141.5644  169.9033 C.ar    1  UNL1        0.0036
     32 C         139.4686  140.7031  169.1363 C.ar    1  UNL1       -0.0030
     33 C         142.7456  142.7199  170.1074 C.3     1  UNL1        0.4186
     34 F         143.7048  143.5811  170.8745 F       1  UNL1       -0.1659
     35 F         143.7644  141.6196  170.0689 F       1  UNL1       -0.1659
     36 F         141.7269  143.8201  170.1460 F       1  UNL1       -0.1659
@<TRIPOS>BOND
     1     9    10    1
     2    10     7    1
     3     7     8    2
     4     7     1    1
     5     1    11    1
     6    11    12    1
     7    12    13   am
     8    13    14    2
     9    13    16    1
    10    16    17   ar
    11    17    18   ar
    12    18    22    1
    13    22    23    1
    14    18    19   ar
    15    19    20   ar
    16    20    24    1
    17    24    25    1
    18    20    21   ar
    19     1     2    1
    20     2     3    1
    21     3     4    1
    22     4    26    1
    23    26    27    1
    24    27    28   ar
    25    28    29   ar
    26    29    30   ar
    27    30    33    1
    28    33    34    1
    29    33    35    1
    30    33    36    1
    31    30    31   ar
    32    31    32   ar
    33     4     5    1
    34     5     6    1
    35     6     1    1
    36    21    16   ar
    37    32    27   ar
    38    12    15    1
@<TRIPOS>MOLECULE
*****
 36 38 0 0 0
SMALL
GASTEIGER

@<TRIPOS>ATOM
      1 C         138.1842  140.1604  162.4189 C.3     1  UNL1        0.1102
      2 C         138.0745  141.2765  163.4148 C.3     1  UNL1        0.0296
      3 C         138.2717  141.0001  164.8759 C.3     1  UNL1        0.0730
      4 N         138.5786  139.6074  165.3410 N.3     1  UNL1       -0.2689
      5 C         138.6883  138.4912  164.3450 C.3     1  UNL1        0.0730
      6 C         138.4911  138.7676  162.8839 C.3     1  UNL1        0.0296
      7 C         138.1878  139.4410  161.1026 C.2     1  UNL1        0.3177
      8 O         137.0541  139.6339  160.1395 O.2     1  UNL1       -0.2501
      9 C         139.9438  138.5953  159.3847 C.3     1  UNL1        0.2556
     10 O         139.3250  138.5289  160.7494 O.3     1  UNL1       -0.4444
     11 C         137.8785  141.3032  161.4967 C.3     1  UNL1        0.1002
     12 N         138.9129  141.7744  160.5179 N.am    1  UNL1       -0.3003
     13 C         139.3323  143.2146  160.5051 C.2     1  UNL1        0.2461
     14 O         138.7174  144.1834  161.4711 O.2     1  UNL1       -0.2701
     15 H         139.3165  141.1385  159.8839 H       1  UNL1        0.1498
     16 C         140.3666  143.6859  159.5263 C.ar    1  UNL1        0.0594
     17 C         140.0365  144.7799  158.5548 C.ar    1  UNL1        0.0416
     18 C         141.0708  145.2512  157.5760 C.ar    1  UNL1        0.1419
     19 C         142.4353  144.6283  157.5687 C.ar    1  UNL1        0.0738
     20 C         142.7656  143.5342  158.5403 C.ar    1  UNL1        0.1419
     21 C         141.7312  143.0630  159.5191 C.ar    1  UNL1        0.0416
     22 O         140.7406  146.3453  156.6044 O.3     1  UNL1       -0.4713
     23 C         139.3558  146.9205  156.5649 C.3     1  UNL1        0.2525
     24 O         144.1301  142.9114  158.5330 O.3     1  UNL1       -0.4713
     25 C         144.2731  141.4190  158.4841 C.3     1  UNL1        0.2525
     26 C         138.7758  139.3310  166.8020 C.3     1  UNL1        0.0991
     27 C         139.7280  140.1694  167.6021 C.ar    1  UNL1       -0.0062
     28 C         140.9634  140.7240  166.9568 C.ar    1  UNL1       -0.0030
     29 C         141.9157  141.5624  167.7568 C.ar    1  UNL1        0.0036
     30 C         141.6327  141.8463  169.2023 C.ar    1  UNL1        0.0714
     31 C         140.3974  141.2917  169.8476 C.ar    1  UNL1        0.0036
     32 C         139.4451  140.4533  169.0475 C.ar    1  UNL1       -0.0030
     33 C         142.5850  142.6847  170.0024 C.3     1  UNL1        0.4186
     34 F         143.5374  143.5230  170.8025 F       1  UNL1       -0.1659
     35 F         143.5781  141.5605  169.9983 F       1  UNL1       -0.1659
     36 F         141.5920  143.8088  170.0065 F       1  UNL1       -0.1659
@<TRIPOS>BOND
     1     9    10    1
     2    10     7    1
     3     7     8    2
     4     7     1    1
     5     1    11    1
     6    11    12    1
     7    12    13   am
     8    13    14    2
     9    13    16    1
    10    16    17   ar
    11    17    18   ar
    12    18    22    1
    13    22    23    1
    14    18    19   ar
    15    19    20   ar
    16    20    24    1
    17    24    25    1
    18    20    21   ar
    19     1     2    1
    20     2     3    1
    21     3     4    1
    22     4    26    1
    23    26    27    1
    24    27    28   ar
    25    28    29   ar
    26    29    30   ar
    27    30    33    1
    28    33    34    1
    29    33    35    1
    30    33    36    1
    31    30    31   ar
    32    31    32   ar
    33     4     5    1
    34     5     6    1
    35     6     1    1
    36    21    16   ar
    37    32    27   ar
    38    12    15    1
@<TRIPOS>MOLECULE
*****
 36 38 0 0 0
SMALL
GASTEIGER

@<TRIPOS>ATOM
      1 C         142.1409  138.9499  158.7122 C.3     1  UNL1        0.1102
      2 C         140.8673  138.3825  158.1592 C.3     1  UNL1        0.0296
      3 C         139.5922  138.5010  158.9402 C.3     1  UNL1        0.0730
      4 N         139.5907  139.1869  160.2742 N.3     1  UNL1       -0.2689
      5 C         140.8644  139.7543  160.8272 C.3     1  UNL1        0.0730
      6 C         142.1395  139.6358  160.0462 C.3     1  UNL1        0.0296
      7 C         143.5899  139.3242  158.8142 C.2     1  UNL1        0.3177
      8 O         144.3179  139.1572  160.1150 O.2     1  UNL1       -0.2501
      9 C         144.5506  141.3407  157.4872 C.3     1  UNL1        0.2556
     10 O         144.3109  139.8656  157.6154 O.3     1  UNL1       -0.4444
     11 C         142.6456  138.3940  157.4136 C.3     1  UNL1        0.1002
     12 N         142.5922  136.9167  157.1589 N.am    1  UNL1       -0.3003
     13 C         143.6305  136.2670  156.2928 C.2     1  UNL1        0.2461
     14 O         144.7220  137.0945  155.6815 O.2     1  UNL1       -0.2701
     15 H         141.8758  136.3736  157.5602 H       1  UNL1        0.1498
     16 C         143.5771  134.7898  156.0382 C.ar    1  UNL1        0.0594
     17 C         143.0213  134.2712  154.7451 C.ar    1  UNL1        0.0416
     18 C         142.9679  132.7940  154.4904 C.ar    1  UNL1        0.1419
     19 C         143.4704  131.8353  155.5288 C.ar    1  UNL1        0.0738
     20 C         144.0263  132.3538  156.8219 C.ar    1  UNL1        0.1419
     21 C         144.0796  133.8310  157.0766 C.ar    1  UNL1        0.0416
     22 O         142.4121  132.2755  153.1972 O.3     1  UNL1       -0.4713
     23 C         142.4378  130.8042  152.9061 C.3     1  UNL1        0.2525
     24 O         144.5287  131.3950  157.8603 O.3     1  UNL1       -0.4713
     25 C         144.4491  129.9170  157.6176 C.3     1  UNL1        0.2525
     26 C         138.3156  139.3054  161.0552 C.3     1  UNL1        0.0991
     27 C         138.3534  139.3241  162.5546 C.ar    1  UNL1       -0.0062
     28 C         138.7726  138.0977  163.3097 C.ar    1  UNL1       -0.0030
     29 C         138.8104  138.1163  164.8091 C.ar    1  UNL1        0.0036
     30 C         138.4290  139.3615  165.5535 C.ar    1  UNL1        0.0714
     31 C         138.0098  140.5880  164.7984 C.ar    1  UNL1        0.0036
     32 C         137.9720  140.5693  163.2990 C.ar    1  UNL1       -0.0030
     33 C         138.4668  139.3803  167.0528 C.3     1  UNL1        0.4186
     34 F         138.5045  139.3989  168.5522 F       1  UNL1       -0.1659
     35 F         137.2121  138.5592  167.0947 F       1  UNL1       -0.1659
     36 F         139.7214  140.2012  167.0110 F       1  UNL1       -0.1659
@<TRIPOS>BOND
     1     9    10    1
     2    10     7    1
     3     7     8    2
     4     7     1    1
     5     1    11    1
     6    11    12    1
     7    12    13   am
     8    13    14    2
     9    13    16    1
    10    16    17   ar
    11    17    18   ar
    12    18    22    1
    13    22    23    1
    14    18    19   ar
    15    19    20   ar
    16    20    24    1
    17    24    25    1
    18    20    21   ar
    19     1     2    1
    20     2     3    1
    21     3     4    1
    22     4    26    1
    23    26    27    1
    24    27    28   ar
    25    28    29   ar
    26    29    30   ar
    27    30    33    1
    28    33    34    1
    29    33    35    1
    30    33    36    1
    31    30    31   ar
    32    31    32   ar
    33     4     5    1
    34     5     6    1
    35     6     1    1
    36    21    16   ar
    37    32    27   ar
    38    12    15    1
@<TRIPOS>MOLECULE
*****
 36 38 0 0 0
SMALL
GASTEIGER

@<TRIPOS>ATOM
      1 C         143.2557  139.2094  158.8588 C.3     1  UNL1        0.1102
      2 C         142.7184  137.9547  159.4807 C.3     1  UNL1        0.0296
      3 C         142.7594  137.7786  160.9697 C.3     1  UNL1        0.0730
      4 N         143.3376  138.8573  161.8369 N.3     1  UNL1       -0.2689
      5 C         143.8749  140.1121  161.2150 C.3     1  UNL1        0.0730
      6 C         143.8340  140.2882  159.7259 C.3     1  UNL1        0.0296
      7 C         143.6383  140.2104  157.8091 C.2     1  UNL1        0.3177
      8 O         142.6681  141.2801  157.4037 O.2     1  UNL1       -0.2501
      9 C         145.6564  141.3960  156.6814 C.3     1  UNL1        0.2556
     10 O         144.9911  140.1415  157.1647 O.3     1  UNL1       -0.4444
     11 C         142.8103  138.4783  157.6271 C.3     1  UNL1        0.1002
     12 N         142.9994  136.9937  157.5266 N.am    1  UNL1       -0.3003
     13 C         142.2498  136.2106  156.4898 C.2     1  UNL1        0.2461
     14 O         141.3111  136.9121  155.5536 O.2     1  UNL1       -0.2701
     15 H         143.6156  136.5332  158.1411 H       1  UNL1        0.1498
     16 C         142.4389  134.7260  156.3893 C.ar    1  UNL1        0.0594
     17 C         143.5248  134.0533  157.1756 C.ar    1  UNL1        0.0416
     18 C         143.7140  132.5687  157.0751 C.ar    1  UNL1        0.1419
     19 C         142.8172  131.7567  156.1883 C.ar    1  UNL1        0.0738
     20 C         141.7312  132.4294  155.4019 C.ar    1  UNL1        0.1419
     21 C         141.5421  133.9140  155.5024 C.ar    1  UNL1        0.0416
     22 O         144.8000  131.8961  157.8615 O.3     1  UNL1       -0.4713
     23 C         144.7217  130.4245  158.1415 C.3     1  UNL1        0.2525
     24 O         140.8345  131.6174  154.5151 O.3     1  UNL1       -0.4713
     25 C         141.0898  130.1508  154.3312 C.3     1  UNL1        0.2525
     26 C         143.3786  138.6813  163.3259 C.3     1  UNL1        0.0991
     27 C         142.1012  138.6284  164.1103 C.ar    1  UNL1       -0.0062
     28 C         141.2552  137.3899  164.0833 C.ar    1  UNL1       -0.0030
     29 C         139.9777  137.3370  164.8677 C.ar    1  UNL1        0.0036
     30 C         139.5462  138.5224  165.6792 C.ar    1  UNL1        0.0714
     31 C         140.3922  139.7609  165.7062 C.ar    1  UNL1        0.0036
     32 C         141.6696  139.8138  164.9218 C.ar    1  UNL1       -0.0030
     33 C         138.2688  138.4695  166.4635 C.3     1  UNL1        0.4186
     34 F         136.9913  138.4168  167.2480 F       1  UNL1       -0.1659
     35 F         138.4770  139.8900  166.8984 F       1  UNL1       -0.1659
     36 F         138.0605  137.0492  166.0288 F       1  UNL1       -0.1659
@<TRIPOS>BOND
     1     9    10    1
     2    10     7    1
     3     7     8    2
     4     7     1    1
     5     1    11    1
     6    11    12    1
     7    12    13   am
     8    13    14    2
     9    13    16    1
    10    16    17   ar
    11    17    18   ar
    12    18    22    1
    13    22    23    1
    14    18    19   ar
    15    19    20   ar
    16    20    24    1
    17    24    25    1
    18    20    21   ar
    19     1     2    1
    20     2     3    1
    21     3     4    1
    22     4    26    1
    23    26    27    1
    24    27    28   ar
    25    28    29   ar
    26    29    30   ar
    27    30    33    1
    28    33    34    1
    29    33    35    1
    30    33    36    1
    31    30    31   ar
    32    31    32   ar
    33     4     5    1
    34     5     6    1
    35     6     1    1
    36    21    16   ar
    37    32    27   ar
    38    12    15    1
@<TRIPOS>MOLECULE
*****
 36 38 0 0 0
SMALL
GASTEIGER

@<TRIPOS>ATOM
      1 C         141.8063  138.4775  158.4624 C.3     1  UNL1        0.1102
      2 C         142.8690  138.4021  159.5183 C.3     1  UNL1        0.0296
      3 C         142.6615  139.0785  160.8409 C.3     1  UNL1        0.0730
      4 N         141.3912  139.8303  161.1077 N.3     1  UNL1       -0.2689
      5 C         140.3285  139.9057  160.0519 C.3     1  UNL1        0.0730
      6 C         140.5360  139.2294  158.7292 C.3     1  UNL1        0.0296
      7 C         141.0994  138.2664  157.1563 C.2     1  UNL1        0.3177
      8 O         141.7178  138.7573  155.8810 O.2     1  UNL1       -0.2501
      9 C         139.2544  136.9993  155.8371 C.3     1  UNL1        0.2556
     10 O         139.7743  137.5644  157.1257 O.3     1  UNL1       -0.4444
     11 C         142.8311  137.6524  157.7421 C.3     1  UNL1        0.1002
     12 N         142.6093  136.1815  157.5498 N.am    1  UNL1       -0.3003
     13 C         143.3539  135.4448  156.4759 C.2     1  UNL1        0.2461
     14 O         144.3201  136.1792  155.5944 O.2     1  UNL1       -0.2701
     15 H         141.9751  135.6995  158.1283 H       1  UNL1        0.1498
     16 C         143.1321  133.9738  156.2836 C.ar    1  UNL1        0.0594
     17 C         141.9000  133.4867  155.5803 C.ar    1  UNL1        0.0416
     18 C         141.6782  132.0157  155.3880 C.ar    1  UNL1        0.1419
     19 C         142.6886  131.0318  155.8989 C.ar    1  UNL1        0.0738
     20 C         143.9208  131.5189  156.6022 C.ar    1  UNL1        0.1419
     21 C         144.1425  132.9899  156.7945 C.ar    1  UNL1        0.0416
     22 O         140.4460  131.5286  154.6847 O.3     1  UNL1       -0.4713
     23 C         140.3473  130.0965  154.2500 C.3     1  UNL1        0.2525
     24 O         144.9311  130.5350  157.1131 O.3     1  UNL1       -0.4713
     25 C         144.6635  129.7732  158.3772 C.3     1  UNL1        0.2525
     26 C         141.1837  140.5066  162.4304 C.3     1  UNL1        0.0991
     27 C         140.3276  139.8588  163.4779 C.ar    1  UNL1       -0.0062
     28 C         139.3229  140.6752  164.2356 C.ar    1  UNL1       -0.0030
     29 C         138.4667  140.0274  165.2832 C.ar    1  UNL1        0.0036
     30 C         138.6152  138.5632  165.5731 C.ar    1  UNL1        0.0714
     31 C         139.6200  137.7468  164.8154 C.ar    1  UNL1        0.0036
     32 C         140.4761  138.3946  163.7679 C.ar    1  UNL1       -0.0030
     33 C         137.7591  137.9153  166.6206 C.3     1  UNL1        0.4186
     34 F         136.9030  137.2676  167.6682 F       1  UNL1       -0.1659
     35 F         137.5021  139.2570  167.2402 F       1  UNL1       -0.1659
     36 F         138.0161  136.5738  166.0010 F       1  UNL1       -0.1659
@<TRIPOS>BOND
     1     9    10    1
     2    10     7    1
     3     7     8    2
     4     7     1    1
     5     1    11    1
     6    11    12    1
     7    12    13   am
     8    13    14    2
     9    13    16    1
    10    16    17   ar
    11    17    18   ar
    12    18    22    1
    13    22    23    1
    14    18    19   ar
    15    19    20   ar
    16    20    24    1
    17    24    25    1
    18    20    21   ar
    19     1     2    1
    20     2     3    1
    21     3     4    1
    22     4    26    1
    23    26    27    1
    24    27    28   ar
    25    28    29   ar
    26    29    30   ar
    27    30    33    1
    28    33    34    1
    29    33    35    1
    30    33    36    1
    31    30    31   ar
    32    31    32   ar
    33     4     5    1
    34     5     6    1
    35     6     1    1
    36    21    16   ar
    37    32    27   ar
    38    12    15    1
@<TRIPOS>MOLECULE
*****
 36 38 0 0 0
SMALL
GASTEIGER

@<TRIPOS>ATOM
      1 C         141.6655  138.5897  158.5734 C.3     1  UNL1        0.1102
      2 C         142.9291  138.1525  159.2531 C.3     1  UNL1        0.0296
      3 C         143.1072  138.3819  160.7247 C.3     1  UNL1        0.0730
      4 N         142.0216  139.0486  161.5166 N.3     1  UNL1       -0.2689
      5 C         140.7580  139.4858  160.8369 C.3     1  UNL1        0.0730
      6 C         140.5799  139.2564  159.3653 C.3     1  UNL1        0.0296
      7 C         140.6572  138.8236  157.4877 C.2     1  UNL1        0.3177
      8 O         139.4556  137.9329  157.3755 O.2     1  UNL1       -0.2501
      9 C         139.7645  140.9635  156.3156 C.3     1  UNL1        0.2556
     10 O         140.8506  139.9482  156.5142 O.3     1  UNL1       -0.4444
     11 C         142.4009  138.0043  157.4045 C.3     1  UNL1        0.1002
     12 N         142.4724  136.5159  157.2324 N.am    1  UNL1       -0.3003
     13 C         143.5389  135.9112  156.3682 C.2     1  UNL1        0.2461
     14 O         144.5339  136.7948  155.6761 O.2     1  UNL1       -0.2701
     15 H         141.8193  135.9359  157.6867 H       1  UNL1        0.1498
     16 C         143.6104  134.4228  156.1961 C.ar    1  UNL1        0.0594
     17 C         144.2343  133.5735  157.2635 C.ar    1  UNL1        0.0416
     18 C         144.3058  132.0851  157.0915 C.ar    1  UNL1        0.1419
     19 C         143.7534  131.4460  155.8520 C.ar    1  UNL1        0.0738
     20 C         143.1294  132.2953  154.7845 C.ar    1  UNL1        0.1419
     21 C         143.0579  133.7837  154.9566 C.ar    1  UNL1        0.0416
     22 O         144.9298  131.2359  158.1590 O.3     1  UNL1       -0.4713
     23 C         144.5885  129.7783  158.2527 C.3     1  UNL1        0.2525
     24 O         142.5770  131.6562  153.5451 O.3     1  UNL1       -0.4713
     25 C         143.4998  130.9812  152.5742 C.3     1  UNL1        0.2525
     26 C         142.1997  139.2780  162.9882 C.3     1  UNL1        0.0991
     27 C         141.0795  138.9684  163.9365 C.ar    1  UNL1       -0.0062
     28 C         140.6553  139.9859  164.9538 C.ar    1  UNL1       -0.0030
     29 C         139.5351  139.6764  165.9022 C.ar    1  UNL1        0.0036
     30 C         138.8391  138.3494  165.8333 C.ar    1  UNL1        0.0714
     31 C         139.2634  137.3319  164.8160 C.ar    1  UNL1        0.0036
     32 C         140.3835  137.6415  163.8677 C.ar    1  UNL1       -0.0030
     33 C         137.7189  138.0399  166.7816 C.3     1  UNL1        0.4186
     34 F         136.5988  137.7304  167.7299 F       1  UNL1       -0.1659
     35 F         137.7098  139.4690  167.2371 F       1  UNL1       -0.1659
     36 F         137.7281  136.6108  166.3260 F       1  UNL1       -0.1659
@<TRIPOS>BOND
     1     9    10    1
     2    10     7    1
     3     7     8    2
     4     7     1    1
     5     1    11    1
     6    11    12    1
     7    12    13   am
     8    13    14    2
     9    13    16    1
    10    16    17   ar
    11    17    18   ar
    12    18    22    1
    13    22    23    1
    14    18    19   ar
    15    19    20   ar
    16    20    24    1
    17    24    25    1
    18    20    21   ar
    19     1     2    1
    20     2     3    1
    21     3     4    1
    22     4    26    1
    23    26    27    1
    24    27    28   ar
    25    28    29   ar
    26    29    30   ar
    27    30    33    1
    28    33    34    1
    29    33    35    1
    30    33    36    1
    31    30    31   ar
    32    31    32   ar
    33     4     5    1
    34     5     6    1
    35     6     1    1
    36    21    16   ar
    37    32    27   ar
    38    12    15    1
