@<TRIPOS>MOLECULE
*****
 39 43 0 0 0
SMALL
GASTEIGER

@<TRIPOS>ATOM
      1 C         141.4091  144.8025  161.9452 C.ar    1  UNL1        0.1859
      2 N         142.6635  144.4144  162.6702 N.ar    1  UNL1       -0.2217
      3 C         142.5809  143.6182  163.9388 C.ar    1  UNL1        0.1361
      4 C         143.8353  143.2301  164.6638 C.ar    1  UNL1        0.1227
      5 N         143.7526  142.4340  165.9323 N.ar    1  UNL1       -0.2231
      6 C         142.4154  142.0259  166.4759 C.ar    1  UNL1        0.1696
      7 N         141.1610  142.4140  165.7509 N.ar    1  UNL1       -0.2076
      8 C         141.2437  143.2102  164.4823 C.ar    1  UNL1        0.1671
      9 N         139.9892  143.5983  163.7573 N.ar    1  UNL1       -0.2789
     10 C         140.0719  144.3945  162.4887 C.ar    1  UNL1        0.2934
     11 O         138.8174  144.7826  161.7637 O.2     1  UNL1       -0.2639
     12 C         142.3327  141.2297  167.7445 C.ar    1  UNL1        0.1025
     13 C         141.8978  141.8915  169.0183 C.ar    1  UNL1        0.2305
     14 N         141.8151  141.0953  170.2870 N.ar    1  UNL1       -0.1893
     15 C         142.1674  139.6373  170.2816 C.ar    1  UNL1        0.2012
     16 N         142.6024  138.9755  169.0077 N.ar    1  UNL1       -0.2281
     17 C         142.6850  139.7717  167.7391 C.ar    1  UNL1        0.0678
     18 C         143.1200  139.1098  166.4652 C.3     1  UNL1        0.0406
     19 C         142.8066  138.2572  165.2715 C.3     1  UNL1        0.0063
     20 C         144.1867  138.8162  165.4524 C.3     1  UNL1        0.0063
     21 O         141.5455  143.3496  169.0237 O.3     1  UNL1       -0.4560
     22 C         140.4491  143.8530  169.9151 C.3     1  UNL1        0.2542
     23 C         138.6520  143.1902  164.3008 C.3     1  UNL1        0.0900
     24 C         138.1416  141.7987  164.0702 C.3     1  UNL1        0.0246
     25 C         137.8252  144.1737  165.0749 C.3     1  UNL1        0.0246
     26 N         141.4917  145.5987  160.6766 N.pl3   1  UNL1       -0.3094
     27 H         141.6930  146.5618  160.7121 H       1  UNL1        0.1487
     28 C         141.2678  144.9276  159.3539 C.3     1  UNL1        0.1349
     29 C         142.1434  140.5390  158.8810 C.ar    1  UNL1        0.1247
     30 C         143.2690  141.5302  158.9041 C.ar    1  UNL1        0.0212
     31 C         142.9772  142.9930  159.0618 C.ar    1  UNL1        0.0178
     32 C         141.5596  143.4648  159.1963 C.ar    1  UNL1        0.0789
     33 N         140.4340  142.4736  159.1732 N.ar    1  UNL1       -0.2451
     34 C         140.7259  141.0107  159.0156 C.ar    1  UNL1        0.1168
     35 S         142.4352  139.0762  158.7234 S.O2    1  UNL1        0.0101
     36 O         143.8876  139.3369  158.9927 O.2     1  UNL1       -0.1686
     37 O         140.9828  138.8155  158.4541 O.2     1  UNL1       -0.1686
     38 C         142.6947  136.9845  157.2043 C.3     1  UNL1        0.0276
     39 C         142.7270  137.6133  158.5658 C.3     1  UNL1        0.1560
@<TRIPOS>BOND
     1    38    39    1
     2    39    35    1
     3    35    36    2
     4    35    37    2
     5    35    29    1
     6    29    30   ar
     7    30    31   ar
     8    31    32   ar
     9    32    28    1
    10    28    26    1
    11    26     1    1
    12     1     2   ar
    13     2     3   ar
    14     3     4   ar
    15     4     5   ar
    16     5     6   ar
    17     6    12    1
    18    12    13   ar
    19    13    21    1
    20    21    22    1
    21    13    14   ar
    22    14    15   ar
    23    15    16   ar
    24    16    17   ar
    25    17    18    1
    26    18    19    1
    27    19    20    1
    28     6     7   ar
    29     7     8   ar
    30     8     9   ar
    31     9    23    1
    32    23    24    1
    33    23    25    1
    34     9    10   ar
    35    10    11    2
    36    32    33   ar
    37    33    34   ar
    38    34    29   ar
    39    10     1   ar
    40     8     3   ar
    41    17    12   ar
    42    20    18    1
    43    26    27    1
@<TRIPOS>MOLECULE
*****
 39 43 0 0 0
SMALL
GASTEIGER

@<TRIPOS>ATOM
      1 C         141.4495  144.8057  162.0859 C.ar    1  UNL1        0.1859
      2 N         142.6745  144.1749  162.6786 N.ar    1  UNL1       -0.2217
      3 C         142.5822  143.4356  163.9806 C.ar    1  UNL1        0.1361
      4 C         143.8072  142.8048  164.5733 C.ar    1  UNL1        0.1227
      5 N         143.7150  142.0656  165.8752 N.ar    1  UNL1       -0.2231
      6 C         142.3977  141.9573  166.5845 C.ar    1  UNL1        0.1696
      7 N         141.1727  142.5881  165.9918 N.ar    1  UNL1       -0.2076
      8 C         141.2649  143.3273  164.6898 C.ar    1  UNL1        0.1671
      9 N         140.0399  143.9582  164.0971 N.ar    1  UNL1       -0.2789
     10 C         140.1322  144.6974  162.7952 C.ar    1  UNL1        0.2934
     11 O         138.9071  145.3283  162.2024 O.2     1  UNL1       -0.2639
     12 C         142.3054  141.2180  167.8864 C.ar    1  UNL1        0.1025
     13 C         141.8888  141.9422  169.1322 C.ar    1  UNL1        0.2305
     14 N         141.7966  141.2030  170.4342 N.ar    1  UNL1       -0.1893
     15 C         142.1210  139.7395  170.4903 C.ar    1  UNL1        0.2012
     16 N         142.5376  139.0153  169.2445 N.ar    1  UNL1       -0.2281
     17 C         142.6298  139.7546  167.9426 C.ar    1  UNL1        0.0678
     18 C         143.0465  139.0304  166.6967 C.3     1  UNL1        0.0406
     19 C         144.1135  138.3777  165.8689 C.3     1  UNL1        0.0063
     20 C         142.7010  138.4289  165.3668 C.3     1  UNL1        0.0063
     21 O         141.5644  143.4056  169.0760 O.3     1  UNL1       -0.4560
     22 C         140.4361  143.9557  169.8973 C.3     1  UNL1        0.2542
     23 C         138.7226  143.8498  164.8063 C.3     1  UNL1        0.0900
     24 C         137.8362  142.6640  164.5650 C.3     1  UNL1        0.0246
     25 C         138.2917  144.9273  165.7567 C.3     1  UNL1        0.0246
     26 N         141.5417  145.5450  160.7840 N.pl3   1  UNL1       -0.3094
     27 H         141.9156  146.4554  160.7602 H       1  UNL1        0.1487
     28 C         141.0643  144.8970  159.5182 C.3     1  UNL1        0.1349
     29 C         143.7988  142.1579  157.2227 C.ar    1  UNL1        0.1247
     30 C         142.5101  142.6182  156.6085 C.ar    1  UNL1        0.0212
     31 C         141.5986  143.5312  157.3736 C.ar    1  UNL1        0.0178
     32 C         141.9758  143.9840  158.7530 C.ar    1  UNL1        0.0789
     33 N         143.2646  143.5237  159.3673 N.ar    1  UNL1       -0.2451
     34 C         144.1761  142.6106  158.6021 C.ar    1  UNL1        0.1168
     35 S         144.7103  141.2448  156.4576 S.O2    1  UNL1        0.0101
     36 O         144.7043  142.2047  155.3050 O.2     1  UNL1       -0.1686
     37 O         144.7163  140.2849  157.6102 O.2     1  UNL1       -0.1686
     38 C         145.0866  139.0620  155.0997 C.3     1  UNL1        0.0276
     39 C         145.6219  140.3317  155.6924 C.3     1  UNL1        0.1560
@<TRIPOS>BOND
     1    38    39    1
     2    39    35    1
     3    35    36    2
     4    35    37    2
     5    35    29    1
     6    29    30   ar
     7    30    31   ar
     8    31    32   ar
     9    32    28    1
    10    28    26    1
    11    26     1    1
    12     1     2   ar
    13     2     3   ar
    14     3     4   ar
    15     4     5   ar
    16     5     6   ar
    17     6    12    1
    18    12    13   ar
    19    13    21    1
    20    21    22    1
    21    13    14   ar
    22    14    15   ar
    23    15    16   ar
    24    16    17   ar
    25    17    18    1
    26    18    19    1
    27    19    20    1
    28     6     7   ar
    29     7     8   ar
    30     8     9   ar
    31     9    23    1
    32    23    24    1
    33    23    25    1
    34     9    10   ar
    35    10    11    2
    36    32    33   ar
    37    33    34   ar
    38    34    29   ar
    39    10     1   ar
    40     8     3   ar
    41    17    12   ar
    42    20    18    1
    43    26    27    1
@<TRIPOS>MOLECULE
*****
 39 43 0 0 0
SMALL
GASTEIGER

@<TRIPOS>ATOM
      1 C         141.8101  144.3233  162.4159 C.ar    1  UNL1        0.1859
      2 N         142.8233  143.6025  163.2549 N.ar    1  UNL1       -0.2217
      3 C         142.4347  143.0585  164.5977 C.ar    1  UNL1        0.1361
      4 C         143.4478  142.3377  165.4367 C.ar    1  UNL1        0.1227
      5 N         143.0592  141.7937  166.7794 N.ar    1  UNL1       -0.2231
      6 C         141.6574  141.9706  167.2832 C.ar    1  UNL1        0.1696
      7 N         140.6443  142.6914  166.4442 N.ar    1  UNL1       -0.2076
      8 C         141.0329  143.2354  165.1015 C.ar    1  UNL1        0.1671
      9 N         140.0197  143.9562  164.2624 N.ar    1  UNL1       -0.2789
     10 C         140.4084  144.5002  162.9197 C.ar    1  UNL1        0.2934
     11 O         139.3952  145.2210  162.0806 O.2     1  UNL1       -0.2639
     12 C         141.2688  141.4266  168.6261 C.ar    1  UNL1        0.1025
     13 C         141.9043  141.9742  169.8696 C.ar    1  UNL1        0.2305
     14 N         141.5157  141.4302  171.2124 N.ar    1  UNL1       -0.1893
     15 C         140.4916  140.3386  171.3116 C.ar    1  UNL1        0.2012
     16 N         139.8562  139.7910  170.0680 N.ar    1  UNL1       -0.2281
     17 C         140.2448  140.3350  168.7253 C.ar    1  UNL1        0.0678
     18 C         139.6093  139.7875  167.4817 C.3     1  UNL1        0.0406
     19 C         139.6814  139.4713  166.0172 C.3     1  UNL1        0.0063
     20 C         138.4367  139.1554  166.7923 C.3     1  UNL1        0.0063
     21 O         142.9283  143.0657  169.7703 O.3     1  UNL1       -0.4560
     22 C         144.3804  142.7532  169.9801 C.3     1  UNL1        0.2542
     23 C         138.6180  144.1331  164.7662 C.3     1  UNL1        0.0900
     24 C         137.5081  143.2940  164.2056 C.3     1  UNL1        0.0246
     25 C         138.3261  145.1489  165.8305 C.3     1  UNL1        0.0246
     26 N         142.1987  144.8673  161.0731 N.pl3   1  UNL1       -0.3094
     27 H         142.6157  145.7565  161.0041 H       1  UNL1        0.1487
     28 C         141.9520  144.0566  159.8354 C.3     1  UNL1        0.1349
     29 C         140.9134  146.1120  155.9693 C.ar    1  UNL1        0.1247
     30 C         140.0648  146.3309  157.1866 C.ar    1  UNL1        0.0212
     31 C         140.4110  145.6458  158.4753 C.ar    1  UNL1        0.0178
     32 C         141.6058  144.7417  158.5467 C.ar    1  UNL1        0.0789
     33 N         142.4545  144.5228  157.3294 N.ar    1  UNL1       -0.2451
     34 C         142.1082  145.2079  156.0407 C.ar    1  UNL1        0.1168
     35 S         140.5673  146.7971  154.6806 S.O2    1  UNL1        0.0101
     36 O         139.4318  147.5027  155.3608 O.2     1  UNL1       -0.1686
     37 O         141.7028  146.0914  154.0005 O.2     1  UNL1       -0.1686
     38 C         140.4239  148.9617  153.2510 C.3     1  UNL1        0.0276
     39 C         140.2211  147.4822  153.3919 C.3     1  UNL1        0.1560
@<TRIPOS>BOND
     1    38    39    1
     2    39    35    1
     3    35    36    2
     4    35    37    2
     5    35    29    1
     6    29    30   ar
     7    30    31   ar
     8    31    32   ar
     9    32    28    1
    10    28    26    1
    11    26     1    1
    12     1     2   ar
    13     2     3   ar
    14     3     4   ar
    15     4     5   ar
    16     5     6   ar
    17     6    12    1
    18    12    13   ar
    19    13    21    1
    20    21    22    1
    21    13    14   ar
    22    14    15   ar
    23    15    16   ar
    24    16    17   ar
    25    17    18    1
    26    18    19    1
    27    19    20    1
    28     6     7   ar
    29     7     8   ar
    30     8     9   ar
    31     9    23    1
    32    23    24    1
    33    23    25    1
    34     9    10   ar
    35    10    11    2
    36    32    33   ar
    37    33    34   ar
    38    34    29   ar
    39    10     1   ar
    40     8     3   ar
    41    17    12   ar
    42    20    18    1
    43    26    27    1
@<TRIPOS>MOLECULE
*****
 39 43 0 0 0
SMALL
GASTEIGER

@<TRIPOS>ATOM
      1 C         141.2447  144.8089  161.9821 C.ar    1  UNL1        0.1859
      2 N         142.5140  144.2822  162.5834 N.ar    1  UNL1       -0.2217
      3 C         142.4719  143.5164  163.8725 C.ar    1  UNL1        0.1361
      4 C         143.7411  142.9897  164.4738 C.ar    1  UNL1        0.1227
      5 N         143.6990  142.2239  165.7628 N.ar    1  UNL1       -0.2231
      6 C         142.3876  141.9848  166.4507 C.ar    1  UNL1        0.1696
      7 N         141.1184  142.5115  165.8494 N.ar    1  UNL1       -0.2076
      8 C         141.1605  143.2773  164.5604 C.ar    1  UNL1        0.1671
      9 N         139.8912  143.8040  163.9591 N.ar    1  UNL1       -0.2789
     10 C         139.9333  144.5698  162.6700 C.ar    1  UNL1        0.2934
     11 O         138.6640  145.0965  162.0687 O.2     1  UNL1       -0.2639
     12 C         142.3456  141.2190  167.7398 C.ar    1  UNL1        0.1025
     13 C         141.9566  141.9124  169.0117 C.ar    1  UNL1        0.2305
     14 N         141.9145  141.1465  170.3009 N.ar    1  UNL1       -0.1893
     15 C         142.2615  139.6873  170.3180 C.ar    1  UNL1        0.2012
     16 N         142.6504  138.9939  169.0460 N.ar    1  UNL1       -0.2281
     17 C         142.6925  139.7597  167.7569 C.ar    1  UNL1        0.0678
     18 C         143.0815  139.0663  166.4849 C.3     1  UNL1        0.0406
     19 C         144.1250  138.7010  165.4713 C.3     1  UNL1        0.0063
     20 C         142.7116  138.2307  165.2954 C.3     1  UNL1        0.0063
     21 O         141.6097  143.3716  168.9946 O.3     1  UNL1       -0.4560
     22 C         140.4781  143.8834  169.8358 C.3     1  UNL1        0.2542
     23 C         138.5798  143.5649  164.6469 C.3     1  UNL1        0.0900
     24 C         137.9803  144.6343  165.5112 C.3     1  UNL1        0.0246
     25 C         137.8679  142.2565  164.4704 C.3     1  UNL1        0.0246
     26 N         141.2868  145.5747  160.6930 N.pl3   1  UNL1       -0.3094
     27 H         141.1172  146.5445  160.6908 H       1  UNL1        0.1487
     28 C         141.5872  144.8630  159.4073 C.3     1  UNL1        0.1349
     29 C         138.2282  143.1887  156.9245 C.ar    1  UNL1        0.1247
     30 C         138.4562  142.6814  158.3175 C.ar    1  UNL1        0.0212
     31 C         139.5758  143.2394  159.1451 C.ar    1  UNL1        0.0178
     32 C         140.4676  144.3049  158.5797 C.ar    1  UNL1        0.0789
     33 N         140.2396  144.8123  157.1866 N.ar    1  UNL1       -0.2451
     34 C         139.1199  144.2541  156.3590 C.ar    1  UNL1        0.1168
     35 S         137.1086  142.6307  156.0969 S.O2    1  UNL1        0.0101
     36 O         136.6950  144.0219  155.7183 O.2     1  UNL1       -0.1686
     37 O         137.5223  141.2394  156.4754 O.2     1  UNL1       -0.1686
     38 C         136.2580  141.5799  153.8782 C.3     1  UNL1        0.0276
     39 C         135.9890  142.0725  155.2692 C.3     1  UNL1        0.1560
@<TRIPOS>BOND
     1    38    39    1
     2    39    35    1
     3    35    36    2
     4    35    37    2
     5    35    29    1
     6    29    30   ar
     7    30    31   ar
     8    31    32   ar
     9    32    28    1
    10    28    26    1
    11    26     1    1
    12     1     2   ar
    13     2     3   ar
    14     3     4   ar
    15     4     5   ar
    16     5     6   ar
    17     6    12    1
    18    12    13   ar
    19    13    21    1
    20    21    22    1
    21    13    14   ar
    22    14    15   ar
    23    15    16   ar
    24    16    17   ar
    25    17    18    1
    26    18    19    1
    27    19    20    1
    28     6     7   ar
    29     7     8   ar
    30     8     9   ar
    31     9    23    1
    32    23    24    1
    33    23    25    1
    34     9    10   ar
    35    10    11    2
    36    32    33   ar
    37    33    34   ar
    38    34    29   ar
    39    10     1   ar
    40     8     3   ar
    41    17    12   ar
    42    20    18    1
    43    26    27    1
@<TRIPOS>MOLECULE
*****
 39 43 0 0 0
SMALL
GASTEIGER

@<TRIPOS>ATOM
      1 C         141.7484  144.2593  162.0559 C.ar    1  UNL1        0.1859
      2 N         142.7539  143.5034  162.8728 N.ar    1  UNL1       -0.2217
      3 C         142.3702  142.9559  164.2156 C.ar    1  UNL1        0.1361
      4 C         143.3757  142.2000  165.0326 C.ar    1  UNL1        0.1227
      5 N         142.9920  141.6525  166.3753 N.ar    1  UNL1       -0.2231
      6 C         141.6028  141.8610  166.9011 C.ar    1  UNL1        0.1696
      7 N         140.5972  142.6170  166.0842 N.ar    1  UNL1       -0.2076
      8 C         140.9809  143.1644  164.7415 C.ar    1  UNL1        0.1671
      9 N         139.9754  143.9204  163.9245 N.ar    1  UNL1       -0.2789
     10 C         140.3591  144.4678  162.5817 C.ar    1  UNL1        0.2934
     11 O         139.3536  145.2238  161.7647 O.2     1  UNL1       -0.2639
     12 C         141.2190  141.3135  168.2440 C.ar    1  UNL1        0.1025
     13 C         141.8776  141.8400  169.4846 C.ar    1  UNL1        0.2305
     14 N         141.4939  141.2925  170.8274 N.ar    1  UNL1       -0.1893
     15 C         140.4516  140.2185  170.9295 C.ar    1  UNL1        0.2012
     16 N         139.7931  139.6921  169.6888 N.ar    1  UNL1       -0.2281
     17 C         140.1768  140.2396  168.3461 C.ar    1  UNL1        0.0678
     18 C         139.5183  139.7132  167.1054 C.3     1  UNL1        0.0406
     19 C         138.2752  139.4242  166.3172 C.3     1  UNL1        0.0063
     20 C         139.6208  139.0904  165.7447 C.3     1  UNL1        0.0063
     21 O         142.9198  142.9139  169.3825 O.3     1  UNL1       -0.4560
     22 C         144.3103  142.6597  169.8845 C.3     1  UNL1        0.2542
     23 C         138.5861  144.1289  164.4503 C.3     1  UNL1        0.0900
     24 C         138.3465  145.0929  165.5743 C.3     1  UNL1        0.0246
     25 C         137.4366  143.3735  163.8521 C.3     1  UNL1        0.0246
     26 N         142.1321  144.8068  160.7131 N.pl3   1  UNL1       -0.3094
     27 H         142.3306  145.7657  160.6108 H       1  UNL1        0.1487
     28 C         142.2134  143.8934  159.5261 C.3     1  UNL1        0.1349
     29 C         138.5656  143.1650  156.9937 C.ar    1  UNL1        0.1247
     30 C         139.7521  143.8756  156.4129 C.ar    1  UNL1        0.0212
     31 C         140.9680  144.1184  157.2570 C.ar    1  UNL1        0.0178
     32 C         140.9975  143.6506  158.6820 C.ar    1  UNL1        0.0789
     33 N         139.8109  142.9400  159.2627 N.ar    1  UNL1       -0.2451
     34 C         138.5950  142.6972  158.4185 C.ar    1  UNL1        0.1168
     35 S         137.3497  142.9222  156.1496 S.O2    1  UNL1        0.0101
     36 O         137.1874  141.5676  156.7730 O.2     1  UNL1       -0.1686
     37 O         137.5120  144.2768  155.5261 O.2     1  UNL1       -0.1686
     38 C         135.8820  141.3187  154.7266 C.3     1  UNL1        0.0276
     39 C         136.1337  142.6794  155.3054 C.3     1  UNL1        0.1560
@<TRIPOS>BOND
     1    38    39    1
     2    39    35    1
     3    35    36    2
     4    35    37    2
     5    35    29    1
     6    29    30   ar
     7    30    31   ar
     8    31    32   ar
     9    32    28    1
    10    28    26    1
    11    26     1    1
    12     1     2   ar
    13     2     3   ar
    14     3     4   ar
    15     4     5   ar
    16     5     6   ar
    17     6    12    1
    18    12    13   ar
    19    13    21    1
    20    21    22    1
    21    13    14   ar
    22    14    15   ar
    23    15    16   ar
    24    16    17   ar
    25    17    18    1
    26    18    19    1
    27    19    20    1
    28     6     7   ar
    29     7     8   ar
    30     8     9   ar
    31     9    23    1
    32    23    24    1
    33    23    25    1
    34     9    10   ar
    35    10    11    2
    36    32    33   ar
    37    33    34   ar
    38    34    29   ar
    39    10     1   ar
    40     8     3   ar
    41    17    12   ar
    42    20    18    1
    43    26    27    1
@<TRIPOS>MOLECULE
*****
 39 43 0 0 0
SMALL
GASTEIGER

@<TRIPOS>ATOM
      1 C         139.9846  143.3423  161.5470 C.ar    1  UNL1        0.1859
      2 N         139.1664  142.5688  162.5381 N.ar    1  UNL1       -0.2217
      3 C         139.7584  142.1838  163.8615 C.ar    1  UNL1        0.1361
      4 C         138.9402  141.4103  164.8526 C.ar    1  UNL1        0.1227
      5 N         139.5322  141.0253  166.1759 N.ar    1  UNL1       -0.2231
      6 C         140.9425  141.4138  166.5081 C.ar    1  UNL1        0.1696
      7 N         141.7607  142.1872  165.5171 N.ar    1  UNL1       -0.2076
      8 C         141.1686  142.5722  164.1937 C.ar    1  UNL1        0.1671
      9 N         141.9868  143.3457  163.2026 N.ar    1  UNL1       -0.2789
     10 C         141.3948  143.7307  161.8793 C.ar    1  UNL1        0.2934
     11 O         142.2130  144.5042  160.8881 O.2     1  UNL1       -0.2639
     12 C         141.5345  141.0287  167.8316 C.ar    1  UNL1        0.1025
     13 C         141.1982  141.8182  169.0618 C.ar    1  UNL1        0.2305
     14 N         141.7902  141.4332  170.3852 N.ar    1  UNL1       -0.1893
     15 C         142.7185  140.2586  170.4783 C.ar    1  UNL1        0.2012
     16 N         143.0548  139.4691  169.2479 N.ar    1  UNL1       -0.2281
     17 C         142.4628  139.8542  167.9246 C.ar    1  UNL1        0.0678
     18 C         142.7991  139.0646  166.6943 C.3     1  UNL1        0.0406
     19 C         142.3598  138.2699  165.5004 C.3     1  UNL1        0.0063
     20 C         143.8208  138.4920  165.7573 C.3     1  UNL1        0.0063
     21 O         140.2699  142.9928  168.9687 O.3     1  UNL1       -0.4560
     22 C         140.4097  144.1372  169.9284 C.3     1  UNL1        0.2542
     23 C         143.3971  143.7342  163.5348 C.3     1  UNL1        0.0900
     24 C         144.5178  142.7663  163.2954 C.3     1  UNL1        0.0246
     25 C         143.6866  145.0904  164.1064 C.3     1  UNL1        0.0246
     26 N         139.3926  143.7273  160.2236 N.pl3   1  UNL1       -0.3094
     27 H         139.3969  144.6694  159.9378 H       1  UNL1        0.1487
     28 C         138.7941  142.6770  159.3356 C.3     1  UNL1        0.1349
     29 C         141.2364  139.0970  158.1236 C.ar    1  UNL1        0.1247
     30 C         141.7520  140.4808  157.8599 C.ar    1  UNL1        0.0212
     31 C         140.9379  141.6741  158.2639 C.ar    1  UNL1        0.0178
     32 C         139.6082  141.4837  158.9316 C.ar    1  UNL1        0.0789
     33 N         139.0926  140.0999  159.1952 N.ar    1  UNL1       -0.2451
     34 C         139.9068  138.9066  158.7912 C.ar    1  UNL1        0.1168
     35 S         142.0505  137.9038  157.7195 S.O2    1  UNL1        0.0101
     36 O         140.8788  137.3634  156.9546 O.2     1  UNL1       -0.1686
     37 O         143.2222  138.4441  158.4845 O.2     1  UNL1       -0.1686
     38 C         143.3871  136.5986  155.9139 C.3     1  UNL1        0.0276
     39 C         142.8647  136.7104  157.3155 C.3     1  UNL1        0.1560
@<TRIPOS>BOND
     1    38    39    1
     2    39    35    1
     3    35    36    2
     4    35    37    2
     5    35    29    1
     6    29    30   ar
     7    30    31   ar
     8    31    32   ar
     9    32    28    1
    10    28    26    1
    11    26     1    1
    12     1     2   ar
    13     2     3   ar
    14     3     4   ar
    15     4     5   ar
    16     5     6   ar
    17     6    12    1
    18    12    13   ar
    19    13    21    1
    20    21    22    1
    21    13    14   ar
    22    14    15   ar
    23    15    16   ar
    24    16    17   ar
    25    17    18    1
    26    18    19    1
    27    19    20    1
    28     6     7   ar
    29     7     8   ar
    30     8     9   ar
    31     9    23    1
    32    23    24    1
    33    23    25    1
    34     9    10   ar
    35    10    11    2
    36    32    33   ar
    37    33    34   ar
    38    34    29   ar
    39    10     1   ar
    40     8     3   ar
    41    17    12   ar
    42    20    18    1
    43    26    27    1
@<TRIPOS>MOLECULE
*****
 39 43 0 0 0
SMALL
GASTEIGER

@<TRIPOS>ATOM
      1 C         138.8797  139.7379  159.6949 C.ar    1  UNL1        0.1859
      2 N         139.2458  138.5887  160.5867 N.ar    1  UNL1       -0.2217
      3 C         139.5475  138.8305  162.0360 C.ar    1  UNL1        0.1361
      4 C         139.9136  137.6814  162.9278 C.ar    1  UNL1        0.1227
      5 N         140.2153  137.9232  164.3771 N.ar    1  UNL1       -0.2231
      6 C         140.1509  139.3143  164.9346 C.ar    1  UNL1        0.1696
      7 N         139.7848  140.4635  164.0428 N.ar    1  UNL1       -0.2076
      8 C         139.4831  140.2216  162.5935 C.ar    1  UNL1        0.1671
      9 N         139.1170  141.3708  161.7017 N.ar    1  UNL1       -0.2789
     10 C         138.8153  141.1290  160.2524 C.ar    1  UNL1        0.2934
     11 O         138.4492  142.2782  159.3606 O.2     1  UNL1       -0.2639
     12 C         140.4526  139.5561  166.3839 C.ar    1  UNL1        0.1025
     13 C         139.3427  139.5465  167.3928 C.ar    1  UNL1        0.2305
     14 N         139.6444  139.7883  168.8422 N.ar    1  UNL1       -0.1893
     15 C         141.0561  140.0397  169.2826 C.ar    1  UNL1        0.2012
     16 N         142.1660  140.0493  168.2736 N.ar    1  UNL1       -0.2281
     17 C         141.8643  139.8075  166.8243 C.ar    1  UNL1        0.0678
     18 C         142.9743  139.8171  165.8153 C.3     1  UNL1        0.0406
     19 C         143.8092  140.5528  164.8095 C.3     1  UNL1        0.0063
     20 C         144.0618  139.0980  165.0737 C.3     1  UNL1        0.0063
     21 O         137.9310  139.2951  166.9524 O.3     1  UNL1       -0.4560
     22 C         137.3333  137.9266  167.0949 C.3     1  UNL1        0.2542
     23 C         139.0526  142.7619  162.2592 C.3     1  UNL1        0.0900
     24 C         140.2765  143.6292  162.2543 C.3     1  UNL1        0.0246
     25 C         137.7645  143.2856  162.8215 C.3     1  UNL1        0.0246
     26 N         138.5780  139.4961  158.2455 N.pl3   1  UNL1       -0.3094
     27 H         137.6556  139.3041  157.9601 H       1  UNL1        0.1487
     28 C         139.6818  139.5467  157.2311 C.3     1  UNL1        0.1349
     29 C         141.9570  135.8056  156.1931 C.ar    1  UNL1        0.1247
     30 C         140.6830  136.1330  155.4722 C.ar    1  UNL1        0.0212
     31 C         139.9246  137.3800  155.8181 C.ar    1  UNL1        0.0178
     32 C         140.4402  138.2997  156.8851 C.ar    1  UNL1        0.0789
     33 N         141.7142  137.9724  157.6061 N.ar    1  UNL1       -0.2451
     34 C         142.4726  136.7253  157.2600 C.ar    1  UNL1        0.1168
     35 S         142.7154  134.5586  155.8471 S.O2    1  UNL1        0.0101
     36 O         144.0047  135.2524  156.1729 O.2     1  UNL1       -0.1686
     37 O         141.4260  133.8649  155.5213 O.2     1  UNL1       -0.1686
     38 C         142.9740  132.4072  154.4137 C.3     1  UNL1        0.0276
     39 C         143.4738  133.3115  155.5011 C.3     1  UNL1        0.1560
@<TRIPOS>BOND
     1    38    39    1
     2    39    35    1
     3    35    36    2
     4    35    37    2
     5    35    29    1
     6    29    30   ar
     7    30    31   ar
     8    31    32   ar
     9    32    28    1
    10    28    26    1
    11    26     1    1
    12     1     2   ar
    13     2     3   ar
    14     3     4   ar
    15     4     5   ar
    16     5     6   ar
    17     6    12    1
    18    12    13   ar
    19    13    21    1
    20    21    22    1
    21    13    14   ar
    22    14    15   ar
    23    15    16   ar
    24    16    17   ar
    25    17    18    1
    26    18    19    1
    27    19    20    1
    28     6     7   ar
    29     7     8   ar
    30     8     9   ar
    31     9    23    1
    32    23    24    1
    33    23    25    1
    34     9    10   ar
    35    10    11    2
    36    32    33   ar
    37    33    34   ar
    38    34    29   ar
    39    10     1   ar
    40     8     3   ar
    41    17    12   ar
    42    20    18    1
    43    26    27    1
@<TRIPOS>MOLECULE
*****
 39 43 0 0 0
SMALL
GASTEIGER

@<TRIPOS>ATOM
      1 C         138.4169  140.6383  161.5716 C.ar    1  UNL1        0.1859
      2 N         139.1563  139.6369  162.4085 N.ar    1  UNL1       -0.2217
      3 C         139.8199  140.0683  163.6828 C.ar    1  UNL1        0.1361
      4 C         140.5593  139.0669  164.5197 C.ar    1  UNL1        0.1227
      5 N         141.2228  139.4984  165.7938 N.ar    1  UNL1       -0.2231
      6 C         141.1470  140.9312  166.2311 C.ar    1  UNL1        0.1696
      7 N         140.4076  141.9326  165.3942 N.ar    1  UNL1       -0.2076
      8 C         139.7440  141.5012  164.1200 C.ar    1  UNL1        0.1671
      9 N         139.0046  142.5026  163.2831 N.ar    1  UNL1       -0.2789
     10 C         138.3411  142.0711  162.0089 C.ar    1  UNL1        0.2934
     11 O         137.6016  143.0726  161.1719 O.2     1  UNL1       -0.2639
     12 C         141.8105  141.3627  167.5053 C.ar    1  UNL1        0.1025
     13 C         141.2170  140.9772  168.8279 C.ar    1  UNL1        0.2305
     14 N         141.8806  141.4086  170.1021 N.ar    1  UNL1       -0.1893
     15 C         143.1377  142.2255  170.0537 C.ar    1  UNL1        0.2012
     16 N         143.7313  142.6110  168.7311 N.ar    1  UNL1       -0.2281
     17 C         143.0677  142.1795  167.4570 C.ar    1  UNL1        0.0678
     18 C         143.6612  142.5650  166.1344 C.3     1  UNL1        0.0406
     19 C         144.2935  142.1752  164.8312 C.3     1  UNL1        0.0063
     20 C         144.0569  143.6224  165.1468 C.3     1  UNL1        0.0063
     21 O         139.9599  140.1603  168.8762 O.3     1  UNL1       -0.4560
     22 C         138.9353  140.4229  169.9399 C.3     1  UNL1        0.2542
     23 C         138.9287  143.9354  163.7203 C.3     1  UNL1        0.0900
     24 C         139.8946  144.9407  163.1666 C.3     1  UNL1        0.0246
     25 C         137.8870  144.3630  164.7112 C.3     1  UNL1        0.0246
     26 N         137.7533  140.2069  160.2974 N.pl3   1  UNL1       -0.3094
     27 H         136.8058  139.9396  160.3018 H       1  UNL1        0.1487
     28 C         138.5334  140.1826  159.0165 C.3     1  UNL1        0.1349
     29 C         139.2463  144.0006  156.7438 C.ar    1  UNL1        0.1247
     30 C         140.2194  143.5624  157.7980 C.ar    1  UNL1        0.0212
     31 C         139.9817  142.2898  158.5555 C.ar    1  UNL1        0.0178
     32 C         138.7710  141.4553  158.2589 C.ar    1  UNL1        0.0789
     33 N         137.7980  141.8935  157.2048 N.ar    1  UNL1       -0.2451
     34 C         138.0357  143.1662  156.4472 C.ar    1  UNL1        0.1168
     35 S         139.4839  145.2732  155.9863 S.O2    1  UNL1        0.0101
     36 O         138.8608  144.6631  154.7659 O.2     1  UNL1       -0.1686
     37 O         140.1071  145.8833  157.2067 O.2     1  UNL1       -0.1686
     38 C         138.9859  147.7956  155.6123 C.3     1  UNL1        0.0276
     39 C         139.7216  146.5459  155.2287 C.3     1  UNL1        0.1560
@<TRIPOS>BOND
     1    38    39    1
     2    39    35    1
     3    35    36    2
     4    35    37    2
     5    35    29    1
     6    29    30   ar
     7    30    31   ar
     8    31    32   ar
     9    32    28    1
    10    28    26    1
    11    26     1    1
    12     1     2   ar
    13     2     3   ar
    14     3     4   ar
    15     4     5   ar
    16     5     6   ar
    17     6    12    1
    18    12    13   ar
    19    13    21    1
    20    21    22    1
    21    13    14   ar
    22    14    15   ar
    23    15    16   ar
    24    16    17   ar
    25    17    18    1
    26    18    19    1
    27    19    20    1
    28     6     7   ar
    29     7     8   ar
    30     8     9   ar
    31     9    23    1
    32    23    24    1
    33    23    25    1
    34     9    10   ar
    35    10    11    2
    36    32    33   ar
    37    33    34   ar
    38    34    29   ar
    39    10     1   ar
    40     8     3   ar
    41    17    12   ar
    42    20    18    1
    43    26    27    1
@<TRIPOS>MOLECULE
*****
 39 43 0 0 0
SMALL
GASTEIGER

@<TRIPOS>ATOM
      1 C         142.9854  139.1197  159.5813 C.ar    1  UNL1        0.1859
      2 N         142.2897  138.1373  160.4763 N.ar    1  UNL1       -0.2217
      3 C         142.1851  138.4072  161.9481 C.ar    1  UNL1        0.1361
      4 C         141.4895  137.4248  162.8431 C.ar    1  UNL1        0.1227
      5 N         141.3849  137.6947  164.3149 N.ar    1  UNL1       -0.2231
      6 C         141.9760  138.9469  164.8917 C.ar    1  UNL1        0.1696
      7 N         142.6717  139.9292  163.9967 N.ar    1  UNL1       -0.2076
      8 C         142.7762  139.6593  162.5249 C.ar    1  UNL1        0.1671
      9 N         143.4719  140.6417  161.6299 N.ar    1  UNL1       -0.2789
     10 C         143.5765  140.3718  160.1581 C.ar    1  UNL1        0.2934
     11 O         144.2722  141.3542  159.2630 O.2     1  UNL1       -0.2639
     12 C         141.8714  139.2167  166.3636 C.ar    1  UNL1        0.1025
     13 C         143.0031  138.8473  167.2761 C.ar    1  UNL1        0.2305
     14 N         142.8985  139.1171  168.7480 N.ar    1  UNL1       -0.1893
     15 C         141.6622  139.7563  169.3072 C.ar    1  UNL1        0.2012
     16 N         140.5304  140.1257  168.3947 N.ar    1  UNL1       -0.2281
     17 C         140.6350  139.8559  166.9229 C.ar    1  UNL1        0.0678
     18 C         139.5033  140.2253  166.0103 C.3     1  UNL1        0.0406
     19 C         138.8389  141.2147  165.0995 C.3     1  UNL1        0.0063
     20 C         138.2075  139.8756  165.3406 C.3     1  UNL1        0.0063
     21 O         144.2395  138.2081  166.7168 O.3     1  UNL1       -0.4560
     22 C         144.8045  136.9770  167.3613 C.3     1  UNL1        0.2542
     23 C         144.0630  141.8938  162.2066 C.3     1  UNL1        0.0900
     24 C         143.2849  143.1758  162.1714 C.3     1  UNL1        0.0246
     25 C         145.4322  141.8641  162.8186 C.3     1  UNL1        0.0246
     26 N         143.0900  138.8498  158.1094 N.pl3   1  UNL1       -0.3094
     27 H         143.9072  139.0989  157.6201 H       1  UNL1        0.1487
     28 C         141.9495  138.2005  157.3830 C.3     1  UNL1        0.1349
     29 C         142.3623  133.9882  155.8547 C.ar    1  UNL1        0.1247
     30 C         143.3236  134.5114  156.8803 C.ar    1  UNL1        0.0212
     31 C         143.1861  135.9155  157.3898 C.ar    1  UNL1        0.0178
     32 C         142.0871  136.7964  156.8736 C.ar    1  UNL1        0.0789
     33 N         141.1258  136.2731  155.8479 N.ar    1  UNL1       -0.2451
     34 C         141.2634  134.8690  155.3385 C.ar    1  UNL1        0.1168
     35 S         142.4999  132.5841  155.3452 S.O2    1  UNL1        0.0101
     36 O         142.4715  132.0701  156.7541 O.2     1  UNL1       -0.1686
     37 O         142.5282  133.0981  153.9363 O.2     1  UNL1       -0.1686
     38 C         143.5229  130.8923  153.6596 C.3     1  UNL1        0.0276
     39 C         142.6374  131.1800  154.8357 C.3     1  UNL1        0.1560
@<TRIPOS>BOND
     1    38    39    1
     2    39    35    1
     3    35    36    2
     4    35    37    2
     5    35    29    1
     6    29    30   ar
     7    30    31   ar
     8    31    32   ar
     9    32    28    1
    10    28    26    1
    11    26     1    1
    12     1     2   ar
    13     2     3   ar
    14     3     4   ar
    15     4     5   ar
    16     5     6   ar
    17     6    12    1
    18    12    13   ar
    19    13    21    1
    20    21    22    1
    21    13    14   ar
    22    14    15   ar
    23    15    16   ar
    24    16    17   ar
    25    17    18    1
    26    18    19    1
    27    19    20    1
    28     6     7   ar
    29     7     8   ar
    30     8     9   ar
    31     9    23    1
    32    23    24    1
    33    23    25    1
    34     9    10   ar
    35    10    11    2
    36    32    33   ar
    37    33    34   ar
    38    34    29   ar
    39    10     1   ar
    40     8     3   ar
    41    17    12   ar
    42    20    18    1
    43    26    27    1
