@<TRIPOS>MOLECULE
*****
 29 32 0 0 0
SMALL
GASTEIGER

@<TRIPOS>ATOM
      1 C         140.8652  138.7579  164.0320 C.2     1  UNL1        0.1157
      2 N         140.1383  138.8928  165.3372 N.2     1  UNL1       -0.1790
      3 N         140.8033  139.9803  166.1278 N.pl3   1  UNL1       -0.2061
      4 C         140.5197  140.5508  167.4858 C.ar    1  UNL1        0.1038
      5 C         139.3819  140.0136  168.3023 C.ar    1  UNL1        0.0308
      6 C         139.0983  140.5841  169.6603 C.ar    1  UNL1        0.0592
      7 CL        137.9604  140.0469  170.4768 Cl      1  UNL1       -0.0822
      8 C         139.9526  141.6918  170.2017 C.ar    1  UNL1        0.0146
      9 C         141.0904  142.2290  169.3852 C.ar    1  UNL1        0.0391
     10 C         141.3739  141.6585  168.0273 C.ar    1  UNL1        0.1536
     11 O         142.5118  142.1958  167.2107 O.3     1  UNL1       -0.4723
     12 C         142.7954  141.6253  165.8528 C.3     1  UNL1        0.2277
     13 C         141.9411  140.5175  165.3113 C.3     1  UNL1        0.1488
     14 C         141.9794  139.7620  164.0160 C.3     1  UNL1        0.0806
     15 C         143.1528  140.6469  163.7161 C.ar    1  UNL1       -0.0157
     16 C         142.9787  141.8526  162.8409 C.ar    1  UNL1       -0.0039
     17 C         144.1522  142.7375  162.5409 C.ar    1  UNL1       -0.0003
     18 C         145.4998  142.4167  163.1162 C.ar    1  UNL1       -0.0000
     19 C         145.6740  141.2111  163.9915 C.ar    1  UNL1       -0.0003
     20 C         144.5005  140.3261  164.2914 C.ar    1  UNL1       -0.0039
     21 C         139.6275  138.2037  161.8159 C.3     1  UNL1        0.0786
     22 C         140.5357  137.7889  162.9354 C.2     1  UNL1        0.1887
     23 O         141.1144  136.4053  162.9582 O.2     1  UNL1       -0.2900
     24 C         142.2630  139.1915  162.6580 C.3     1  UNL1        0.0130
     25 C         143.5696  138.5050  162.3909 C.3     1  UNL1        0.0181
     26 C         143.8480  137.9235  161.0365 C.3     1  UNL1        0.0722
     27 N         143.4177  138.6585  159.8017 N.3     1  UNL1       -0.2703
     28 C         143.9148  140.0504  159.5459 C.3     1  UNL1        0.0897
     29 C         142.4902  138.0016  158.8228 C.3     1  UNL1        0.0897
@<TRIPOS>BOND
     1    21    22    1
     2    22    23    2
     3    22     1    1
     4     1     2    2
     5     2     3    1
     6     3     4    1
     7     4     5   ar
     8     5     6   ar
     9     6     7    1
    10     6     8   ar
    11     8     9   ar
    12     9    10   ar
    13    10    11    1
    14    11    12    1
    15    13    12    1
    16    13    14    1
    17    14    24    1
    18    24    25    1
    19    25    26    1
    20    26    27    1
    21    27    28    1
    22    27    29    1
    23    14    15    1
    24    15    16   ar
    25    16    17   ar
    26    17    18   ar
    27    18    19   ar
    28    19    20   ar
    29    14     1    1
    30    20    15   ar
    31    13     3    1
    32    10     4   ar
@<TRIPOS>MOLECULE
*****
 29 32 0 0 0
SMALL
GASTEIGER

@<TRIPOS>ATOM
      1 C         139.2092  141.1234  164.3163 C.2     1  UNL1        0.1157
      2 N         139.1730  140.6852  165.7504 N.2     1  UNL1       -0.1790
      3 N         140.4321  141.1610  166.4123 N.pl3   1  UNL1       -0.2061
      4 C         140.9423  141.0221  167.8161 C.ar    1  UNL1        0.1038
      5 C         140.1280  140.2898  168.8410 C.ar    1  UNL1        0.0308
      6 C         140.6382  140.1509  170.2447 C.ar    1  UNL1        0.0592
      7 CL        139.8238  139.4186  171.2697 Cl      1  UNL1       -0.0822
      8 C         141.9628  140.7442  170.6234 C.ar    1  UNL1        0.0146
      9 C         142.7771  141.4765  169.5985 C.ar    1  UNL1        0.0391
     10 C         142.2669  141.6154  168.1948 C.ar    1  UNL1        0.1536
     11 O         143.0813  142.3477  167.1698 O.3     1  UNL1       -0.4723
     12 C         142.5711  142.4866  165.7661 C.3     1  UNL1        0.2277
     13 C         141.2465  141.8933  165.3874 C.3     1  UNL1        0.1488
     14 C         140.4907  141.8701  164.0920 C.3     1  UNL1        0.0806
     15 C         141.6655  142.6457  163.5741 C.ar    1  UNL1       -0.0157
     16 C         142.7318  141.9510  162.7802 C.ar    1  UNL1       -0.0039
     17 C         143.9067  142.7267  162.2623 C.ar    1  UNL1       -0.0003
     18 C         144.0152  144.1971  162.5384 C.ar    1  UNL1       -0.0000
     19 C         142.9489  144.8918  163.3324 C.ar    1  UNL1       -0.0003
     20 C         141.7740  144.1161  163.8502 C.ar    1  UNL1       -0.0039
     21 C         138.2642  139.6726  162.3793 C.3     1  UNL1        0.0786
     22 C         138.1498  140.8611  163.2872 C.2     1  UNL1        0.1887
     23 O         136.9761  141.7872  163.1661 O.2     1  UNL1       -0.2900
     24 C         139.9805  142.0090  162.6882 C.3     1  UNL1        0.0130
     25 C         139.4884  143.3382  162.1972 C.3     1  UNL1        0.0181
     26 C         139.6669  143.7187  160.7573 C.3     1  UNL1        0.0722
     27 N         139.9250  145.1490  160.3860 N.3     1  UNL1       -0.2703
     28 C         140.3289  145.4988  158.9844 C.3     1  UNL1        0.0897
     29 C         139.7790  146.2294  161.4163 C.3     1  UNL1        0.0897
@<TRIPOS>BOND
     1    21    22    1
     2    22    23    2
     3    22     1    1
     4     1     2    2
     5     2     3    1
     6     3     4    1
     7     4     5   ar
     8     5     6   ar
     9     6     7    1
    10     6     8   ar
    11     8     9   ar
    12     9    10   ar
    13    10    11    1
    14    11    12    1
    15    13    12    1
    16    13    14    1
    17    14    24    1
    18    24    25    1
    19    25    26    1
    20    26    27    1
    21    27    28    1
    22    27    29    1
    23    14    15    1
    24    15    16   ar
    25    16    17   ar
    26    17    18   ar
    27    18    19   ar
    28    19    20   ar
    29    14     1    1
    30    20    15   ar
    31    13     3    1
    32    10     4   ar
@<TRIPOS>MOLECULE
*****
 29 32 0 0 0
SMALL
GASTEIGER

@<TRIPOS>ATOM
      1 C         143.7860  141.7072  164.1367 C.2     1  UNL1        0.1157
      2 N         143.8103  142.2126  165.5488 N.2     1  UNL1       -0.1790
      3 N         142.7366  141.4985  166.3151 N.pl3   1  UNL1       -0.2061
      4 C         142.2963  141.5880  167.7462 C.ar    1  UNL1        0.1038
      5 C         142.9841  142.5347  168.6847 C.ar    1  UNL1        0.0308
      6 C         142.5439  142.6242  170.1158 C.ar    1  UNL1        0.0592
      7 CL        143.2317  143.5709  171.0543 Cl      1  UNL1       -0.0822
      8 C         141.4158  141.7670  170.6085 C.ar    1  UNL1        0.0146
      9 C         140.7280  140.8203  169.6700 C.ar    1  UNL1        0.0391
     10 C         141.1683  140.7308  168.2389 C.ar    1  UNL1        0.1536
     11 O         140.4805  139.7841  167.3004 O.3     1  UNL1       -0.4723
     12 C         140.9207  139.6946  165.8693 C.3     1  UNL1        0.2277
     13 C         142.0488  140.5518  165.3766 C.3     1  UNL1        0.1488
     14 C         142.6974  140.6808  164.0303 C.3     1  UNL1        0.0806
     15 C         141.7008  139.6357  163.6247 C.ar    1  UNL1       -0.0157
     16 C         140.4270  140.0386  162.9429 C.ar    1  UNL1       -0.0039
     17 C         139.4303  138.9935  162.5373 C.ar    1  UNL1       -0.0003
     18 C         139.7075  137.5454  162.8135 C.ar    1  UNL1       -0.0000
     19 C         140.9814  137.1425  163.4953 C.ar    1  UNL1       -0.0003
     20 C         141.9781  138.1876  163.9009 C.ar    1  UNL1       -0.0039
     21 C         144.2058  143.1456  162.0142 C.3     1  UNL1        0.0786
     22 C         144.6916  142.1505  163.0259 C.2     1  UNL1        0.1887
     23 O         146.0828  141.5985  162.9270 O.2     1  UNL1       -0.2900
     24 C         143.1377  140.5913  162.5991 C.3     1  UNL1        0.0130
     25 C         143.7687  139.3309  162.0860 C.3     1  UNL1        0.0181
     26 C         144.1753  139.2283  160.6458 C.3     1  UNL1        0.0722
     27 N         143.1282  139.1606  159.5738 N.3     1  UNL1       -0.2703
     28 C         141.8641  138.3879  159.8079 C.3     1  UNL1        0.0897
     29 C         143.3454  139.8655  158.2677 C.3     1  UNL1        0.0897
@<TRIPOS>BOND
     1    21    22    1
     2    22    23    2
     3    22     1    1
     4     1     2    2
     5     2     3    1
     6     3     4    1
     7     4     5   ar
     8     5     6   ar
     9     6     7    1
    10     6     8   ar
    11     8     9   ar
    12     9    10   ar
    13    10    11    1
    14    11    12    1
    15    13    12    1
    16    13    14    1
    17    14    24    1
    18    24    25    1
    19    25    26    1
    20    26    27    1
    21    27    28    1
    22    27    29    1
    23    14    15    1
    24    15    16   ar
    25    16    17   ar
    26    17    18   ar
    27    18    19   ar
    28    19    20   ar
    29    14     1    1
    30    20    15   ar
    31    13     3    1
    32    10     4   ar
@<TRIPOS>MOLECULE
*****
 29 32 0 0 0
SMALL
GASTEIGER

@<TRIPOS>ATOM
      1 C         139.6812  143.3861  163.7184 C.2     1  UNL1        0.1157
      2 N         140.3509  143.4637  165.0584 N.2     1  UNL1       -0.1790
      3 N         140.7283  142.0714  165.4693 N.pl3   1  UNL1       -0.2061
      4 C         141.4130  141.5366  166.6921 C.ar    1  UNL1        0.1038
      5 C         141.8495  142.4747  167.7780 C.ar    1  UNL1        0.0308
      6 C         142.5342  141.9399  169.0007 C.ar    1  UNL1        0.0592
      7 CL        142.9707  142.8781  170.0868 Cl      1  UNL1       -0.0822
      8 C         142.7824  140.4669  169.1375 C.ar    1  UNL1        0.0146
      9 C         142.3460  139.5288  168.0516 C.ar    1  UNL1        0.0391
     10 C         141.6613  140.0636  166.8289 C.ar    1  UNL1        0.1536
     11 O         141.2248  139.1254  165.7428 O.3     1  UNL1       -0.4723
     12 C         140.5401  139.6602  164.5201 C.3     1  UNL1        0.2277
     13 C         140.2918  141.1332  164.3833 C.3     1  UNL1        0.1488
     14 C         139.6447  141.9458  163.3012 C.3     1  UNL1        0.0806
     15 C         139.4650  140.6172  162.6284 C.ar    1  UNL1       -0.0157
     16 C         138.1447  139.9096  162.7063 C.ar    1  UNL1       -0.0039
     17 C         137.9650  138.5810  162.0334 C.ar    1  UNL1       -0.0003
     18 C         139.1056  137.9601  161.2827 C.ar    1  UNL1       -0.0000
     19 C         140.4259  138.6678  161.2048 C.ar    1  UNL1       -0.0003
     20 C         140.6056  139.9964  161.8777 C.ar    1  UNL1       -0.0039
     21 C         140.0819  145.5664  162.3634 C.3     1  UNL1        0.0786
     22 C         139.1425  144.5454  162.9335 C.2     1  UNL1        0.1887
     23 O         137.6644  144.6836  162.7187 O.2     1  UNL1       -0.2900
     24 C         138.9599  142.4806  162.0784 C.3     1  UNL1        0.0130
     25 C         139.6233  142.3683  160.7378 C.3     1  UNL1        0.0181
     26 C         138.9591  142.9431  159.5219 C.3     1  UNL1        0.0722
     27 N         138.2633  142.0381  158.5489 N.3     1  UNL1       -0.2703
     28 C         138.0897  140.5832  158.8700 C.3     1  UNL1        0.0897
     29 C         137.7411  142.5880  157.2547 C.3     1  UNL1        0.0897
@<TRIPOS>BOND
     1    21    22    1
     2    22    23    2
     3    22     1    1
     4     1     2    2
     5     2     3    1
     6     3     4    1
     7     4     5   ar
     8     5     6   ar
     9     6     7    1
    10     6     8   ar
    11     8     9   ar
    12     9    10   ar
    13    10    11    1
    14    11    12    1
    15    13    12    1
    16    13    14    1
    17    14    24    1
    18    24    25    1
    19    25    26    1
    20    26    27    1
    21    27    28    1
    22    27    29    1
    23    14    15    1
    24    15    16   ar
    25    16    17   ar
    26    17    18   ar
    27    18    19   ar
    28    19    20   ar
    29    14     1    1
    30    20    15   ar
    31    13     3    1
    32    10     4   ar
@<TRIPOS>MOLECULE
*****
 29 32 0 0 0
SMALL
GASTEIGER

@<TRIPOS>ATOM
      1 C         143.1526  140.6448  163.6273 C.2     1  UNL1        0.1157
      2 N         143.2930  140.0243  164.9857 N.2     1  UNL1       -0.1790
      3 N         142.1703  140.5277  165.8435 N.pl3   1  UNL1       -0.2061
      4 C         141.7999  140.2581  167.2719 C.ar    1  UNL1        0.1038
      5 C         142.6342  139.3265  168.1001 C.ar    1  UNL1        0.0308
      6 C         142.2638  139.0569  169.5284 C.ar    1  UNL1        0.0592
      7 CL        143.0981  138.1252  170.3566 Cl      1  UNL1       -0.0822
      8 C         141.0590  139.7190  170.1285 C.ar    1  UNL1        0.0146
      9 C         140.2246  140.6506  169.3004 C.ar    1  UNL1        0.0391
     10 C         140.5951  140.9202  167.8721 C.ar    1  UNL1        0.1536
     11 O         139.7607  141.8518  167.0438 O.3     1  UNL1       -0.4723
     12 C         140.1311  142.1214  165.6155 C.3     1  UNL1        0.2277
     13 C         141.3359  141.4593  165.0154 C.3     1  UNL1        0.1488
     14 C         141.9430  141.5317  163.6457 C.3     1  UNL1        0.0806
     15 C         140.8109  142.4750  163.3654 C.ar    1  UNL1       -0.0157
     16 C         140.8776  143.8922  163.8521 C.ar    1  UNL1       -0.0039
     17 C         139.7454  144.8356  163.5719 C.ar    1  UNL1       -0.0003
     18 C         138.5466  144.3616  162.8049 C.ar    1  UNL1       -0.0000
     19 C         138.4800  142.9444  162.3181 C.ar    1  UNL1       -0.0003
     20 C         139.6121  142.0010  162.5984 C.ar    1  UNL1       -0.0039
     21 C         143.7053  139.3982  161.4158 C.3     1  UNL1        0.0786
     22 C         144.0621  140.4182  162.4561 C.2     1  UNL1        0.1887
     23 O         145.3283  141.2116  162.3254 O.2     1  UNL1       -0.2900
     24 C         142.3134  141.8013  162.2173 C.3     1  UNL1        0.0130
     25 C         142.7120  143.1840  161.7940 C.3     1  UNL1        0.0181
     26 C         143.1004  143.4496  160.3698 C.3     1  UNL1        0.0722
     27 N         142.2305  144.3114  159.5033 N.3     1  UNL1       -0.2703
     28 C         142.4805  144.3840  158.0261 C.3     1  UNL1        0.0897
     29 C         141.1105  145.1004  160.1141 C.3     1  UNL1        0.0897
@<TRIPOS>BOND
     1    21    22    1
     2    22    23    2
     3    22     1    1
     4     1     2    2
     5     2     3    1
     6     3     4    1
     7     4     5   ar
     8     5     6   ar
     9     6     7    1
    10     6     8   ar
    11     8     9   ar
    12     9    10   ar
    13    10    11    1
    14    11    12    1
    15    13    12    1
    16    13    14    1
    17    14    24    1
    18    24    25    1
    19    25    26    1
    20    26    27    1
    21    27    28    1
    22    27    29    1
    23    14    15    1
    24    15    16   ar
    25    16    17   ar
    26    17    18   ar
    27    18    19   ar
    28    19    20   ar
    29    14     1    1
    30    20    15   ar
    31    13     3    1
    32    10     4   ar
@<TRIPOS>MOLECULE
*****
 29 32 0 0 0
SMALL
GASTEIGER

@<TRIPOS>ATOM
      1 C         140.1371  143.4695  162.9958 C.2     1  UNL1        0.1157
      2 N         140.2832  143.6809  164.4736 N.2     1  UNL1       -0.1790
      3 N         140.0568  142.3639  165.1548 N.pl3   1  UNL1       -0.2061
      4 C         140.0741  141.9658  166.6010 C.ar    1  UNL1        0.1038
      5 C         140.3602  142.9912  167.6577 C.ar    1  UNL1        0.0308
      6 C         140.3775  142.5931  169.1038 C.ar    1  UNL1        0.0592
      7 CL        140.6636  143.6184  170.1606 Cl      1  UNL1       -0.0822
      8 C         140.1088  141.1696  169.4931 C.ar    1  UNL1        0.0146
      9 C         139.8227  140.1443  168.4364 C.ar    1  UNL1        0.0391
     10 C         139.8054  140.5423  166.9903 C.ar    1  UNL1        0.1536
     11 O         139.5193  139.5170  165.9335 O.3     1  UNL1       -0.4723
     12 C         139.5020  139.9151  164.4874 C.3     1  UNL1        0.2277
     13 C         139.7707  141.3385  164.0981 C.3     1  UNL1        0.1488
     14 C         139.8203  142.0218  162.7637 C.3     1  UNL1        0.0806
     15 C         139.5000  140.6574  162.2293 C.ar    1  UNL1       -0.0157
     16 C         140.5900  139.8021  161.6544 C.ar    1  UNL1       -0.0039
     17 C         140.2696  138.4376  161.1200 C.ar    1  UNL1       -0.0003
     18 C         138.8592  137.9284  161.1604 C.ar    1  UNL1       -0.0000
     19 C         137.7693  138.7837  161.7352 C.ar    1  UNL1       -0.0003
     20 C         138.0896  140.1482  162.2696 C.ar    1  UNL1       -0.0039
     21 C         141.5579  144.6271  161.1542 C.3     1  UNL1        0.0786
     22 C         140.2822  144.5212  161.9361 C.2     1  UNL1        0.1887
     23 O         139.1517  145.4671  161.6583 O.2     1  UNL1       -0.2900
     24 C         139.8030  142.4199  161.3175 C.3     1  UNL1        0.0130
     25 C         138.5247  142.3504  160.5358 C.3     1  UNL1        0.0181
     26 C         138.5204  142.6866  159.0740 C.3     1  UNL1        0.0722
     27 N         138.0981  141.6566  158.0686 N.3     1  UNL1       -0.2703
     28 C         138.5119  140.2253  158.2423 C.3     1  UNL1        0.0897
     29 C         137.2619  142.0578  156.8897 C.3     1  UNL1        0.0897
@<TRIPOS>BOND
     1    21    22    1
     2    22    23    2
     3    22     1    1
     4     1     2    2
     5     2     3    1
     6     3     4    1
     7     4     5   ar
     8     5     6   ar
     9     6     7    1
    10     6     8   ar
    11     8     9   ar
    12     9    10   ar
    13    10    11    1
    14    11    12    1
    15    13    12    1
    16    13    14    1
    17    14    24    1
    18    24    25    1
    19    25    26    1
    20    26    27    1
    21    27    28    1
    22    27    29    1
    23    14    15    1
    24    15    16   ar
    25    16    17   ar
    26    17    18   ar
    27    18    19   ar
    28    19    20   ar
    29    14     1    1
    30    20    15   ar
    31    13     3    1
    32    10     4   ar
@<TRIPOS>MOLECULE
*****
 29 32 0 0 0
SMALL
GASTEIGER

@<TRIPOS>ATOM
      1 C         139.0886  141.8485  164.1268 C.2     1  UNL1        0.1157
      2 N         139.0947  141.5336  165.5934 N.2     1  UNL1       -0.1790
      3 N         140.3917  140.8525  165.9158 N.pl3   1  UNL1       -0.2061
      4 C         140.9511  140.3152  167.1997 C.ar    1  UNL1        0.1038
      5 C         140.1557  140.4212  168.4670 C.ar    1  UNL1        0.0308
      6 C         140.7151  139.8839  169.7508 C.ar    1  UNL1        0.0592
      7 CL        139.9197  139.9899  171.0181 Cl      1  UNL1       -0.0822
      8 C         142.0700  139.2405  169.7673 C.ar    1  UNL1        0.0146
      9 C         142.8655  139.1345  168.5001 C.ar    1  UNL1        0.0391
     10 C         142.3061  139.6718  167.2163 C.ar    1  UNL1        0.1536
     11 O         143.1015  139.5658  165.9490 O.3     1  UNL1       -0.4723
     12 C         142.5421  140.1031  164.6651 C.3     1  UNL1        0.2277
     13 C         141.1871  140.7465  164.6486 C.3     1  UNL1        0.1488
     14 C         140.3818  141.3620  163.5429 C.3     1  UNL1        0.0806
     15 C         141.5580  140.9879  162.6906 C.ar    1  UNL1       -0.0157
     16 C         141.5074  139.7508  161.8438 C.ar    1  UNL1       -0.0039
     17 C         142.6836  139.3766  160.9914 C.ar    1  UNL1       -0.0003
     18 C         143.9105  140.2396  160.9858 C.ar    1  UNL1       -0.0000
     19 C         143.9612  141.4767  161.8325 C.ar    1  UNL1       -0.0003
     20 C         142.7849  141.8509  162.6849 C.ar    1  UNL1       -0.0039
     21 C         137.7357  143.9964  163.5733 C.3     1  UNL1        0.0786
     22 C         137.9833  142.5302  163.3760 C.2     1  UNL1        0.1887
     23 O         137.1256  141.7456  162.4280 O.2     1  UNL1       -0.2900
     24 C         139.8223  141.8994  162.2590 C.3     1  UNL1        0.0130
     25 C         140.5073  143.0361  161.5600 C.3     1  UNL1        0.0181
     26 C         139.9038  143.6272  160.3205 C.3     1  UNL1        0.0722
     27 N         139.9914  145.1044  160.0747 N.3     1  UNL1       -0.2703
     28 C         139.9144  146.0622  161.2264 C.3     1  UNL1        0.0897
     29 C         140.1560  145.6236  158.6771 C.3     1  UNL1        0.0897
@<TRIPOS>BOND
     1    21    22    1
     2    22    23    2
     3    22     1    1
     4     1     2    2
     5     2     3    1
     6     3     4    1
     7     4     5   ar
     8     5     6   ar
     9     6     7    1
    10     6     8   ar
    11     8     9   ar
    12     9    10   ar
    13    10    11    1
    14    11    12    1
    15    13    12    1
    16    13    14    1
    17    14    24    1
    18    24    25    1
    19    25    26    1
    20    26    27    1
    21    27    28    1
    22    27    29    1
    23    14    15    1
    24    15    16   ar
    25    16    17   ar
    26    17    18   ar
    27    18    19   ar
    28    19    20   ar
    29    14     1    1
    30    20    15   ar
    31    13     3    1
    32    10     4   ar
@<TRIPOS>MOLECULE
*****
 29 32 0 0 0
SMALL
GASTEIGER

@<TRIPOS>ATOM
      1 C         141.6801  143.2446  163.4239 C.2     1  UNL1        0.1157
      2 N         142.2311  143.3106  164.8175 N.2     1  UNL1       -0.1790
      3 N         141.9678  141.9923  165.4829 N.pl3   1  UNL1       -0.2061
      4 C         142.2857  141.4801  166.8565 C.ar    1  UNL1        0.1038
      5 C         142.9994  142.3609  167.8387 C.ar    1  UNL1        0.0308
      6 C         143.3173  141.8487  169.2122 C.ar    1  UNL1        0.0592
      7 CL        144.0310  142.7294  170.1946 Cl      1  UNL1       -0.0822
      8 C         142.9215  140.4557  169.6034 C.ar    1  UNL1        0.0146
      9 C         142.2078  139.5750  168.6212 C.ar    1  UNL1        0.0391
     10 C         141.8899  140.0872  167.2477 C.ar    1  UNL1        0.1536
     11 O         141.1762  139.2065  166.2653 O.3     1  UNL1       -0.4723
     12 C         140.8583  139.7187  164.8918 C.3     1  UNL1        0.2277
     13 C         141.2541  141.1116  164.5006 C.3     1  UNL1        0.1488
     14 C         141.0763  141.8856  163.2281 C.3     1  UNL1        0.0806
     15 C         140.4060  140.6336  162.7451 C.ar    1  UNL1       -0.0157
     16 C         138.9851  140.3469  163.1310 C.ar    1  UNL1       -0.0039
     17 C         138.3148  139.0949  162.6480 C.ar    1  UNL1       -0.0003
     18 C         139.0653  138.1296  161.7791 C.ar    1  UNL1       -0.0000
     19 C         140.4862  138.4163  161.3932 C.ar    1  UNL1       -0.0003
     20 C         141.1566  139.6683  161.8762 C.ar    1  UNL1       -0.0039
     21 C         140.7933  145.5142  162.5223 C.3     1  UNL1        0.0786
     22 C         141.7251  144.3446  162.4050 C.2     1  UNL1        0.1887
     23 O         142.7019  144.2749  161.2687 O.2     1  UNL1       -0.2900
     24 C         140.7583  142.3977  161.8545 C.3     1  UNL1        0.0130
     25 C         139.3299  142.5559  161.4251 C.3     1  UNL1        0.0181
     26 C         138.9833  142.5759  159.9658 C.3     1  UNL1        0.0722
     27 N         139.0719  141.3159  159.1566 N.3     1  UNL1       -0.2703
     28 C         140.3225  141.0036  158.3895 C.3     1  UNL1        0.0897
     29 C         137.9098  140.3684  159.1145 C.3     1  UNL1        0.0897
@<TRIPOS>BOND
     1    21    22    1
     2    22    23    2
     3    22     1    1
     4     1     2    2
     5     2     3    1
     6     3     4    1
     7     4     5   ar
     8     5     6   ar
     9     6     7    1
    10     6     8   ar
    11     8     9   ar
    12     9    10   ar
    13    10    11    1
    14    11    12    1
    15    13    12    1
    16    13    14    1
    17    14    24    1
    18    24    25    1
    19    25    26    1
    20    26    27    1
    21    27    28    1
    22    27    29    1
    23    14    15    1
    24    15    16   ar
    25    16    17   ar
    26    17    18   ar
    27    18    19   ar
    28    19    20   ar
    29    14     1    1
    30    20    15   ar
    31    13     3    1
    32    10     4   ar
@<TRIPOS>MOLECULE
*****
 29 32 0 0 0
SMALL
GASTEIGER

@<TRIPOS>ATOM
      1 C         139.4307  142.9146  163.8765 C.2     1  UNL1        0.1157
      2 N         139.3260  142.8851  165.3726 N.2     1  UNL1       -0.1790
      3 N         140.7052  142.6924  165.9300 N.pl3   1  UNL1       -0.2061
      4 C         141.2132  142.5869  167.3375 C.ar    1  UNL1        0.1038
      5 C         140.2562  142.6765  168.4889 C.ar    1  UNL1        0.0308
      6 C         140.7642  142.5710  169.8963 C.ar    1  UNL1        0.0592
      7 CL        139.8071  142.6606  171.0479 Cl      1  UNL1       -0.0822
      8 C         142.2293  142.3759  170.1522 C.ar    1  UNL1        0.0146
      9 C         143.1863  142.2863  169.0007 C.ar    1  UNL1        0.0391
     10 C         142.6783  142.3918  167.5933 C.ar    1  UNL1        0.1536
     11 O         143.6354  142.3022  166.4418 O.3     1  UNL1       -0.4723
     12 C         143.1273  142.4076  165.0344 C.3     1  UNL1        0.2277
     13 C         141.6623  142.6027  164.7785 C.3     1  UNL1        0.1488
     14 C         140.8746  142.7401  163.5094 C.3     1  UNL1        0.0806
     15 C         142.2122  142.5876  162.8480 C.ar    1  UNL1       -0.0157
     16 C         143.1522  143.7545  162.7793 C.ar    1  UNL1       -0.0039
     17 C         144.4900  143.6021  162.1179 C.ar    1  UNL1       -0.0003
     18 C         144.8876  142.2828  161.5251 C.ar    1  UNL1       -0.0000
     19 C         143.9476  141.1159  161.5938 C.ar    1  UNL1       -0.0003
     20 C         142.6098  141.2683  162.2552 C.ar    1  UNL1       -0.0039
     21 C         137.6802  141.8895  162.2533 C.3     1  UNL1        0.0786
     22 C         138.2915  143.0881  162.9162 C.2     1  UNL1        0.1887
     23 O         137.7636  144.4603  162.6189 O.2     1  UNL1       -0.2900
     24 C         140.3666  142.8456  162.1019 C.3     1  UNL1        0.0130
     25 C         140.7298  144.0329  161.2605 C.3     1  UNL1        0.0181
     26 C         140.4908  144.0042  159.7799 C.3     1  UNL1        0.0722
     27 N         141.5836  144.4101  158.8358 N.3     1  UNL1       -0.2703
     28 C         141.4417  145.6588  158.0168 C.3     1  UNL1        0.0897
     29 C         142.8181  143.5673  158.7107 C.3     1  UNL1        0.0897
@<TRIPOS>BOND
     1    21    22    1
     2    22    23    2
     3    22     1    1
     4     1     2    2
     5     2     3    1
     6     3     4    1
     7     4     5   ar
     8     5     6   ar
     9     6     7    1
    10     6     8   ar
    11     8     9   ar
    12     9    10   ar
    13    10    11    1
    14    11    12    1
    15    13    12    1
    16    13    14    1
    17    14    24    1
    18    24    25    1
    19    25    26    1
    20    26    27    1
    21    27    28    1
    22    27    29    1
    23    14    15    1
    24    15    16   ar
    25    16    17   ar
    26    17    18   ar
    27    18    19   ar
    28    19    20   ar
    29    14     1    1
    30    20    15   ar
    31    13     3    1
    32    10     4   ar
