@<TRIPOS>MOLECULE
*****
 24 26 0 0 0
SMALL
GASTEIGER

@<TRIPOS>ATOM
      1 C         142.3104  137.6462  160.7765 C.3     1  UNL1        0.0902
      2 N         141.2391  137.9637  161.7772 N.3     1  UNL1       -0.2639
      3 C         140.0937  138.8529  161.3931 C.3     1  UNL1        0.0994
      4 C         139.7738  140.0631  162.2196 C.ar    1  UNL1       -0.0062
      5 C         138.3899  140.2537  162.7661 C.ar    1  UNL1       -0.0032
      6 C         138.0700  141.4638  163.5926 C.ar    1  UNL1       -0.0046
      7 C         139.1340  142.4834  163.8727 C.ar    1  UNL1       -0.0228
      8 C         140.5179  142.2928  163.3262 C.ar    1  UNL1       -0.0046
      9 C         140.8378  141.0826  162.4997 C.ar    1  UNL1       -0.0032
     10 C         138.8141  143.6936  164.6992 C.3     1  UNL1        0.0189
     11 C         137.8749  144.1736  163.6328 C.3     1  UNL1        0.0044
     12 C         139.7534  143.2135  165.7656 C.3     1  UNL1        0.0044
     13 C         138.4942  144.9037  165.5257 C.3     1  UNL1        0.0044
     14 C         141.3131  137.3920  163.1620 C.3     1  UNL1        0.0994
     15 C         141.6524  138.2795  164.3227 C.ar    1  UNL1       -0.0061
     16 C         143.0455  138.8138  164.4762 C.ar    1  UNL1       -0.0029
     17 C         143.3848  139.7013  165.6369 C.ar    1  UNL1       -0.0003
     18 C         142.3309  140.0545  166.6441 C.ar    1  UNL1       -0.0000
     19 C         140.9377  139.5202  166.4906 C.ar    1  UNL1       -0.0003
     20 C         139.8838  139.8735  167.4978 C.ar    1  UNL1       -0.0000
     21 C         138.4906  139.3392  167.3443 C.ar    1  UNL1       -0.0000
     22 C         138.1514  138.4517  166.1837 C.ar    1  UNL1       -0.0000
     23 C         139.2052  138.0984  165.1764 C.ar    1  UNL1       -0.0003
     24 C         140.5984  138.6327  165.3299 C.ar    1  UNL1       -0.0027
@<TRIPOS>BOND
     1     1     2    1
     2     2     3    1
     3     3     4    1
     4     4     5   ar
     5     5     6   ar
     6     6     7   ar
     7     7    10    1
     8    10    11    1
     9    10    12    1
    10    10    13    1
    11     7     8   ar
    12     8     9   ar
    13     2    14    1
    14    14    15    1
    15    15    16   ar
    16    16    17   ar
    17    17    18   ar
    18    18    19   ar
    19    19    20   ar
    20    20    21   ar
    21    21    22   ar
    22    22    23   ar
    23    23    24   ar
    24     9     4   ar
    25    24    15   ar
    26    24    19   ar
@<TRIPOS>MOLECULE
*****
 24 26 0 0 0
SMALL
GASTEIGER

@<TRIPOS>ATOM
      1 C         138.5788  144.8035  162.8752 C.3     1  UNL1        0.0902
      2 N         138.6253  143.7542  163.9461 N.3     1  UNL1       -0.2639
      3 C         139.6472  143.8443  165.0405 C.3     1  UNL1        0.0994
      4 C         140.4810  142.6470  165.3886 C.ar    1  UNL1       -0.0062
      5 C         140.5160  142.1423  166.8007 C.ar    1  UNL1       -0.0032
      6 C         141.3498  140.9450  167.1488 C.ar    1  UNL1       -0.0046
      7 C         142.1486  140.2523  166.0847 C.ar    1  UNL1       -0.0228
      8 C         142.1135  140.7570  164.6726 C.ar    1  UNL1       -0.0046
      9 C         141.2797  141.9543  164.3245 C.ar    1  UNL1       -0.0032
     10 C         142.9824  139.0550  166.4328 C.3     1  UNL1        0.0189
     11 C         143.1656  138.7585  164.9739 C.3     1  UNL1        0.0044
     12 C         142.7991  139.3515  167.8917 C.3     1  UNL1        0.0044
     13 C         143.8161  137.8577  166.7808 C.3     1  UNL1        0.0044
     14 C         137.6501  142.6148  163.9225 C.3     1  UNL1        0.0994
     15 C         137.9617  141.3770  163.1345 C.ar    1  UNL1       -0.0061
     16 C         137.9888  141.4291  161.6357 C.ar    1  UNL1       -0.0029
     17 C         138.3004  140.1913  160.8478 C.ar    1  UNL1       -0.0003
     18 C         138.5849  138.9015  161.5586 C.ar    1  UNL1       -0.0000
     19 C         138.5578  138.8494  163.0575 C.ar    1  UNL1       -0.0003
     20 C         138.8423  137.5596  163.7684 C.ar    1  UNL1       -0.0000
     21 C         138.8152  137.5075  165.2672 C.ar    1  UNL1       -0.0000
     22 C         138.5036  138.7452  166.0552 C.ar    1  UNL1       -0.0000
     23 C         138.2191  140.0351  165.3443 C.ar    1  UNL1       -0.0003
     24 C         138.2462  140.0871  163.8455 C.ar    1  UNL1       -0.0027
@<TRIPOS>BOND
     1     1     2    1
     2     2     3    1
     3     3     4    1
     4     4     5   ar
     5     5     6   ar
     6     6     7   ar
     7     7    10    1
     8    10    11    1
     9    10    12    1
    10    10    13    1
    11     7     8   ar
    12     8     9   ar
    13     2    14    1
    14    14    15    1
    15    15    16   ar
    16    16    17   ar
    17    17    18   ar
    18    18    19   ar
    19    19    20   ar
    20    20    21   ar
    21    21    22   ar
    22    22    23   ar
    23    23    24   ar
    24     9     4   ar
    25    24    15   ar
    26    24    19   ar
@<TRIPOS>MOLECULE
*****
 24 26 0 0 0
SMALL
GASTEIGER

@<TRIPOS>ATOM
      1 C         139.6383  146.2771  161.7010 C.3     1  UNL1        0.0902
      2 N         139.5887  144.9770  162.4476 N.3     1  UNL1       -0.2639
      3 C         139.1086  143.7342  161.7584 C.3     1  UNL1        0.0994
      4 C         139.0171  142.4435  162.5172 C.ar    1  UNL1       -0.0062
      5 C         140.1419  141.4533  162.4512 C.ar    1  UNL1       -0.0032
      6 C         140.0504  140.1627  163.2100 C.ar    1  UNL1       -0.0046
      7 C         138.8340  139.8622  164.0348 C.ar    1  UNL1       -0.0228
      8 C         137.7093  140.8524  164.1009 C.ar    1  UNL1       -0.0046
      9 C         137.8008  142.1431  163.3420 C.ar    1  UNL1       -0.0032
     10 C         138.7425  138.5715  164.7936 C.3     1  UNL1        0.0189
     11 C         139.3989  137.8537  163.6518 C.3     1  UNL1        0.0044
     12 C         138.0861  139.2894  165.9354 C.3     1  UNL1        0.0044
     13 C         138.6510  137.2809  165.5524 C.3     1  UNL1        0.0044
     14 C         140.0191  144.9198  163.8834 C.3     1  UNL1        0.0994
     15 C         141.3747  144.3854  164.2393 C.ar    1  UNL1       -0.0061
     16 C         142.5959  144.9205  163.5520 C.ar    1  UNL1       -0.0029
     17 C         143.9515  144.3861  163.9079 C.ar    1  UNL1       -0.0003
     18 C         144.0860  143.3166  164.9511 C.ar    1  UNL1       -0.0000
     19 C         142.8648  142.7815  165.6384 C.ar    1  UNL1       -0.0003
     20 C         142.9992  141.7121  166.6815 C.ar    1  UNL1       -0.0000
     21 C         141.7780  141.1770  167.3687 C.ar    1  UNL1       -0.0000
     22 C         140.4224  141.7114  167.0129 C.ar    1  UNL1       -0.0000
     23 C         140.2879  142.7809  165.9697 C.ar    1  UNL1       -0.0003
     24 C         141.5091  143.3159  165.2825 C.ar    1  UNL1       -0.0027
@<TRIPOS>BOND
     1     1     2    1
     2     2     3    1
     3     3     4    1
     4     4     5   ar
     5     5     6   ar
     6     6     7   ar
     7     7    10    1
     8    10    11    1
     9    10    12    1
    10    10    13    1
    11     7     8   ar
    12     8     9   ar
    13     2    14    1
    14    14    15    1
    15    15    16   ar
    16    16    17   ar
    17    17    18   ar
    18    18    19   ar
    19    19    20   ar
    20    20    21   ar
    21    21    22   ar
    22    22    23   ar
    23    23    24   ar
    24     9     4   ar
    25    24    15   ar
    26    24    19   ar
@<TRIPOS>MOLECULE
*****
 24 26 0 0 0
SMALL
GASTEIGER

@<TRIPOS>ATOM
      1 C         144.0872  140.2007  161.4165 C.3     1  UNL1        0.0902
      2 N         143.2264  139.7516  162.5599 N.3     1  UNL1       -0.2639
      3 C         143.8508  139.4147  163.8815 C.3     1  UNL1        0.0994
      4 C         143.4447  140.1643  165.1157 C.ar    1  UNL1       -0.0062
      5 C         143.7062  141.6378  165.2184 C.ar    1  UNL1       -0.0032
      6 C         143.3000  142.3873  166.4526 C.ar    1  UNL1       -0.0046
      7 C         142.6323  141.6634  167.5841 C.ar    1  UNL1       -0.0228
      8 C         142.3708  140.1899  167.4813 C.ar    1  UNL1       -0.0046
      9 C         142.7770  139.4404  166.2471 C.ar    1  UNL1       -0.0032
     10 C         142.2261  142.4129  168.8182 C.3     1  UNL1        0.0189
     11 C         143.6108  142.2516  169.3719 C.3     1  UNL1        0.0044
     12 C         140.8415  142.5743  168.2645 C.3     1  UNL1        0.0044
     13 C         141.8200  143.1625  170.0523 C.3     1  UNL1        0.0044
     14 C         141.7413  139.6393  162.3817 C.3     1  UNL1        0.0994
     15 C         140.8176  140.3940  163.2912 C.ar    1  UNL1       -0.0061
     16 C         140.7840  141.8930  163.2502 C.ar    1  UNL1       -0.0029
     17 C         139.8603  142.6477  164.1597 C.ar    1  UNL1       -0.0003
     18 C         138.9702  141.9034  165.1103 C.ar    1  UNL1       -0.0000
     19 C         139.0039  140.4042  165.1514 C.ar    1  UNL1       -0.0003
     20 C         138.1138  139.6599  166.1020 C.ar    1  UNL1       -0.0000
     21 C         138.1475  138.1609  166.1431 C.ar    1  UNL1       -0.0000
     22 C         139.0712  137.4062  165.2336 C.ar    1  UNL1       -0.0000
     23 C         139.9612  138.1505  164.2830 C.ar    1  UNL1       -0.0003
     24 C         139.9276  139.6496  164.2419 C.ar    1  UNL1       -0.0027
@<TRIPOS>BOND
     1     1     2    1
     2     2     3    1
     3     3     4    1
     4     4     5   ar
     5     5     6   ar
     6     6     7   ar
     7     7    10    1
     8    10    11    1
     9    10    12    1
    10    10    13    1
    11     7     8   ar
    12     8     9   ar
    13     2    14    1
    14    14    15    1
    15    15    16   ar
    16    16    17   ar
    17    17    18   ar
    18    18    19   ar
    19    19    20   ar
    20    20    21   ar
    21    21    22   ar
    22    22    23   ar
    23    23    24   ar
    24     9     4   ar
    25    24    15   ar
    26    24    19   ar
@<TRIPOS>MOLECULE
*****
 24 26 0 0 0
SMALL
GASTEIGER

@<TRIPOS>ATOM
      1 C         137.7616  138.6985  167.1053 C.3     1  UNL1        0.0902
      2 N         138.3253  138.8433  165.7229 N.3     1  UNL1       -0.2639
      3 C         138.1288  140.1216  164.9629 C.3     1  UNL1        0.0994
      4 C         139.2698  141.0821  164.8032 C.ar    1  UNL1       -0.0062
      5 C         139.7069  141.5062  163.4324 C.ar    1  UNL1       -0.0032
      6 C         140.8479  142.4667  163.2727 C.ar    1  UNL1       -0.0046
      7 C         141.5518  143.0032  164.4838 C.ar    1  UNL1       -0.0228
      8 C         141.1146  142.5792  165.8546 C.ar    1  UNL1       -0.0046
      9 C         139.9736  141.6186  166.0143 C.ar    1  UNL1       -0.0032
     10 C         142.6927  143.9638  164.3241 C.3     1  UNL1        0.0189
     11 C         141.7418  145.0101  163.8232 C.3     1  UNL1        0.0044
     12 C         143.6437  142.9175  164.8250 C.3     1  UNL1        0.0044
     13 C         143.8337  144.9243  164.1644 C.3     1  UNL1        0.0044
     14 C         139.0855  137.7100  165.1004 C.3     1  UNL1        0.0994
     15 C         140.0376  137.9756  163.9721 C.ar    1  UNL1       -0.0061
     16 C         139.5817  137.8141  162.5523 C.ar    1  UNL1       -0.0029
     17 C         140.5338  138.0798  161.4240 C.ar    1  UNL1       -0.0003
     18 C         141.9418  138.5070  161.7156 C.ar    1  UNL1       -0.0000
     19 C         142.3977  138.6685  163.1355 C.ar    1  UNL1       -0.0003
     20 C         143.8057  139.0957  163.4271 C.ar    1  UNL1       -0.0000
     21 C         144.2616  139.2572  164.8470 C.ar    1  UNL1       -0.0000
     22 C         143.3095  138.9916  165.9752 C.ar    1  UNL1       -0.0000
     23 C         141.9016  138.5644  165.6837 C.ar    1  UNL1       -0.0003
     24 C         141.4457  138.4029  164.2638 C.ar    1  UNL1       -0.0027
@<TRIPOS>BOND
     1     1     2    1
     2     2     3    1
     3     3     4    1
     4     4     5   ar
     5     5     6   ar
     6     6     7   ar
     7     7    10    1
     8    10    11    1
     9    10    12    1
    10    10    13    1
    11     7     8   ar
    12     8     9   ar
    13     2    14    1
    14    14    15    1
    15    15    16   ar
    16    16    17   ar
    17    17    18   ar
    18    18    19   ar
    19    19    20   ar
    20    20    21   ar
    21    21    22   ar
    22    22    23   ar
    23    23    24   ar
    24     9     4   ar
    25    24    15   ar
    26    24    19   ar
@<TRIPOS>MOLECULE
*****
 24 26 0 0 0
SMALL
GASTEIGER

@<TRIPOS>ATOM
      1 C         144.0249  139.6896  161.9118 C.3     1  UNL1        0.0902
      2 N         143.1675  139.0528  162.9650 N.3     1  UNL1       -0.2639
      3 C         143.7088  138.8458  164.3486 C.3     1  UNL1        0.0994
      4 C         143.2755  139.7476  165.4662 C.ar    1  UNL1       -0.0062
      5 C         143.4763  141.2299  165.3546 C.ar    1  UNL1       -0.0032
      6 C         143.0430  142.1316  166.4722 C.ar    1  UNL1       -0.0046
      7 C         142.4087  141.5511  167.7013 C.ar    1  UNL1       -0.0228
      8 C         142.2078  140.0688  167.8129 C.ar    1  UNL1       -0.0046
      9 C         142.6412  139.1670  166.6952 C.ar    1  UNL1       -0.0032
     10 C         141.9754  142.4529  168.8189 C.3     1  UNL1        0.0189
     11 C         143.3068  142.2679  169.4844 C.3     1  UNL1        0.0044
     12 C         140.6439  142.6379  168.1533 C.3     1  UNL1        0.0044
     13 C         141.5420  143.3547  169.9364 C.3     1  UNL1        0.0044
     14 C         141.7689  138.6229  162.6347 C.3     1  UNL1        0.0994
     15 C         140.6601  138.8590  163.6169 C.ar    1  UNL1       -0.0061
     16 C         140.0457  137.7015  164.3469 C.ar    1  UNL1       -0.0029
     17 C         138.9368  137.9376  165.3291 C.ar    1  UNL1       -0.0003
     18 C         138.4424  139.3310  165.5814 C.ar    1  UNL1       -0.0000
     19 C         139.0567  140.4886  164.8514 C.ar    1  UNL1       -0.0003
     20 C         138.5623  141.8820  165.1037 C.ar    1  UNL1       -0.0000
     21 C         139.1767  143.0395  164.3738 C.ar    1  UNL1       -0.0000
     22 C         140.2855  142.8034  163.3916 C.ar    1  UNL1       -0.0000
     23 C         140.7800  141.4100  163.1393 C.ar    1  UNL1       -0.0003
     24 C         140.1656  140.2525  163.8692 C.ar    1  UNL1       -0.0027
@<TRIPOS>BOND
     1     1     2    1
     2     2     3    1
     3     3     4    1
     4     4     5   ar
     5     5     6   ar
     6     6     7   ar
     7     7    10    1
     8    10    11    1
     9    10    12    1
    10    10    13    1
    11     7     8   ar
    12     8     9   ar
    13     2    14    1
    14    14    15    1
    15    15    16   ar
    16    16    17   ar
    17    17    18   ar
    18    18    19   ar
    19    19    20   ar
    20    20    21   ar
    21    21    22   ar
    22    22    23   ar
    23    23    24   ar
    24     9     4   ar
    25    24    15   ar
    26    24    19   ar
@<TRIPOS>MOLECULE
*****
 24 26 0 0 0
SMALL
GASTEIGER

@<TRIPOS>ATOM
      1 C         138.4996  142.1769  161.5377 C.3     1  UNL1        0.0902
      2 N         138.5939  140.9241  162.3573 N.3     1  UNL1       -0.2639
      3 C         137.7537  140.7695  163.5903 C.3     1  UNL1        0.0994
      4 C         138.4097  140.6113  164.9299 C.ar    1  UNL1       -0.0062
      5 C         138.1133  139.4063  165.7726 C.ar    1  UNL1       -0.0032
      6 C         138.7692  139.2482  167.1122 C.ar    1  UNL1       -0.0046
      7 C         139.7217  140.2950  167.6092 C.ar    1  UNL1       -0.0228
      8 C         140.0182  141.5000  166.7665 C.ar    1  UNL1       -0.0046
      9 C         139.3621  141.6582  165.4268 C.ar    1  UNL1       -0.0032
     10 C         140.3777  140.1369  168.9488 C.3     1  UNL1        0.0189
     11 C         141.6958  139.8955  168.2748 C.3     1  UNL1        0.0044
     12 C         139.0596  140.3782  169.6228 C.3     1  UNL1        0.0044
     13 C         141.0337  139.9787  170.2884 C.3     1  UNL1        0.0044
     14 C         139.5283  139.8259  161.9439 C.3     1  UNL1        0.0994
     15 C         140.4194  139.1768  162.9610 C.ar    1  UNL1       -0.0061
     16 C         140.1242  137.7857  163.4380 C.ar    1  UNL1       -0.0029
     17 C         141.0153  137.1366  164.4551 C.ar    1  UNL1       -0.0003
     18 C         142.2017  137.8787  164.9953 C.ar    1  UNL1       -0.0000
     19 C         142.4969  139.2699  164.5184 C.ar    1  UNL1       -0.0003
     20 C         143.6833  140.0120  165.0587 C.ar    1  UNL1       -0.0000
     21 C         143.9785  141.4031  164.5817 C.ar    1  UNL1       -0.0000
     22 C         143.0874  142.0522  163.5646 C.ar    1  UNL1       -0.0000
     23 C         141.9010  141.3101  163.0244 C.ar    1  UNL1       -0.0003
     24 C         141.6058  139.9190  163.5013 C.ar    1  UNL1       -0.0027
@<TRIPOS>BOND
     1     1     2    1
     2     2     3    1
     3     3     4    1
     4     4     5   ar
     5     5     6   ar
     6     6     7   ar
     7     7    10    1
     8    10    11    1
     9    10    12    1
    10    10    13    1
    11     7     8   ar
    12     8     9   ar
    13     2    14    1
    14    14    15    1
    15    15    16   ar
    16    16    17   ar
    17    17    18   ar
    18    18    19   ar
    19    19    20   ar
    20    20    21   ar
    21    21    22   ar
    22    22    23   ar
    23    23    24   ar
    24     9     4   ar
    25    24    15   ar
    26    24    19   ar
@<TRIPOS>MOLECULE
*****
 24 26 0 0 0
SMALL
GASTEIGER

@<TRIPOS>ATOM
      1 C         139.6033  146.2601  161.7716 C.3     1  UNL1        0.0902
      2 N         139.6842  144.8947  162.3874 N.3     1  UNL1       -0.2639
      3 C         138.6326  144.4467  163.3588 C.3     1  UNL1        0.0994
      4 C         138.6016  143.0216  163.8260 C.ar    1  UNL1       -0.0062
      5 C         139.2177  142.6503  165.1423 C.ar    1  UNL1       -0.0032
      6 C         139.1867  141.2253  165.6095 C.ar    1  UNL1       -0.0046
      7 C         138.5394  140.1715  164.7604 C.ar    1  UNL1       -0.0228
      8 C         137.9233  140.5429  163.4442 C.ar    1  UNL1       -0.0046
      9 C         137.9543  141.9680  162.9770 C.ar    1  UNL1       -0.0032
     10 C         138.5084  138.7465  165.2276 C.3     1  UNL1        0.0189
     11 C         138.1819  139.2090  166.6166 C.3     1  UNL1        0.0044
     12 C         138.8349  138.2840  163.8386 C.3     1  UNL1        0.0044
     13 C         138.4773  137.3215  165.6948 C.3     1  UNL1        0.0044
     14 C         140.8165  143.9775  162.0319 C.3     1  UNL1        0.0994
     15 C         141.9755  143.8179  162.9707 C.ar    1  UNL1       -0.0061
     16 C         142.6971  145.0285  163.4841 C.ar    1  UNL1       -0.0029
     17 C         143.8560  144.8689  164.4229 C.ar    1  UNL1       -0.0003
     18 C         144.2934  143.4986  164.8483 C.ar    1  UNL1       -0.0000
     19 C         143.5718  142.2879  164.3349 C.ar    1  UNL1       -0.0003
     20 C         144.0091  140.9176  164.7603 C.ar    1  UNL1       -0.0000
     21 C         143.2875  139.7070  164.2470 C.ar    1  UNL1       -0.0000
     22 C         142.1286  139.8666  163.3082 C.ar    1  UNL1       -0.0000
     23 C         141.6912  141.2369  162.8828 C.ar    1  UNL1       -0.0003
     24 C         142.4128  142.4475  163.3961 C.ar    1  UNL1       -0.0027
@<TRIPOS>BOND
     1     1     2    1
     2     2     3    1
     3     3     4    1
     4     4     5   ar
     5     5     6   ar
     6     6     7   ar
     7     7    10    1
     8    10    11    1
     9    10    12    1
    10    10    13    1
    11     7     8   ar
    12     8     9   ar
    13     2    14    1
    14    14    15    1
    15    15    16   ar
    16    16    17   ar
    17    17    18   ar
    18    18    19   ar
    19    19    20   ar
    20    20    21   ar
    21    21    22   ar
    22    22    23   ar
    23    23    24   ar
    24     9     4   ar
    25    24    15   ar
    26    24    19   ar
@<TRIPOS>MOLECULE
*****
 24 26 0 0 0
SMALL
GASTEIGER

@<TRIPOS>ATOM
      1 C         137.8852  138.4915  161.6505 C.3     1  UNL1        0.0902
      2 N         138.1609  139.0582  163.0116 N.3     1  UNL1       -0.2639
      3 C         137.9341  140.5172  163.2766 C.3     1  UNL1        0.0994
      4 C         139.1041  141.4321  163.4861 C.ar    1  UNL1       -0.0062
      5 C         139.1749  142.2898  164.7147 C.ar    1  UNL1       -0.0032
      6 C         140.3449  143.2048  164.9243 C.ar    1  UNL1       -0.0046
      7 C         141.4442  143.2620  163.9053 C.ar    1  UNL1       -0.0228
      8 C         141.3734  142.4044  162.6767 C.ar    1  UNL1       -0.0046
      9 C         140.2033  141.4894  162.4672 C.ar    1  UNL1       -0.0032
     10 C         142.6142  144.1770  164.1148 C.3     1  UNL1        0.0189
     11 C         141.8619  145.2913  163.4497 C.3     1  UNL1        0.0044
     12 C         143.3664  143.0627  164.7799 C.3     1  UNL1        0.0044
     13 C         143.7842  145.0919  164.3244 C.3     1  UNL1        0.0044
     14 C         138.6634  138.1661  164.1078 C.3     1  UNL1        0.0994
     15 C         139.3203  138.7617  165.3177 C.ar    1  UNL1       -0.0061
     16 C         138.4934  139.1380  166.5113 C.ar    1  UNL1       -0.0029
     17 C         139.1503  139.7336  167.7211 C.ar    1  UNL1       -0.0003
     18 C         140.6341  139.9529  167.7374 C.ar    1  UNL1       -0.0000
     19 C         141.4610  139.5766  166.5438 C.ar    1  UNL1       -0.0003
     20 C         142.9448  139.7959  166.5601 C.ar    1  UNL1       -0.0000
     21 C         143.7717  139.4196  165.3665 C.ar    1  UNL1       -0.0000
     22 C         143.1148  138.8241  164.1567 C.ar    1  UNL1       -0.0000
     23 C         141.6310  138.6048  164.1404 C.ar    1  UNL1       -0.0003
     24 C         140.8042  138.9810  165.3339 C.ar    1  UNL1       -0.0027
@<TRIPOS>BOND
     1     1     2    1
     2     2     3    1
     3     3     4    1
     4     4     5   ar
     5     5     6   ar
     6     6     7   ar
     7     7    10    1
     8    10    11    1
     9    10    12    1
    10    10    13    1
    11     7     8   ar
    12     8     9   ar
    13     2    14    1
    14    14    15    1
    15    15    16   ar
    16    16    17   ar
    17    17    18   ar
    18    18    19   ar
    19    19    20   ar
    20    20    21   ar
    21    21    22   ar
    22    22    23   ar
    23    23    24   ar
    24     9     4   ar
    25    24    15   ar
    26    24    19   ar
