@<TRIPOS>MOLECULE
*****
 26 28 0 0 0
SMALL
GASTEIGER

@<TRIPOS>ATOM
      1 C         137.6433  138.9099  166.9591 C.3     1  UNL1        0.0337
      2 C         139.0734  139.3324  166.7967 C.3     1  UNL1        0.1467
      3 N         139.0362  139.4754  168.2894 N.am    1  UNL1       -0.2806
      4 C         140.3885  139.9380  168.7445 C.2     1  UNL1        0.3106
      5 O         140.7963  140.2100  170.1622 O.2     1  UNL1       -0.2521
      6 N         141.2615  140.0809  167.5332 N.am    1  UNL1       -0.2050
      7 C         140.4487  139.7066  166.3293 C.2     1  UNL1        0.2527
      8 O         140.9272  139.7066  164.9077 O.2     1  UNL1       -0.2723
      9 H         138.2604  139.2970  168.8687 H       1  UNL1        0.1516
     10 C         138.8116  139.1011  165.3379 C.ar    1  UNL1        0.0020
     11 C         138.2595  140.2085  164.4902 C.ar    1  UNL1       -0.0023
     12 C         137.9977  139.9771  163.0315 C.ar    1  UNL1       -0.0003
     13 C         138.2880  138.6382  162.4205 C.ar    1  UNL1       -0.0000
     14 C         138.8401  137.5308  163.2683 C.ar    1  UNL1       -0.0003
     15 C         139.1018  137.7622  164.7270 C.ar    1  UNL1       -0.0023
     16 C         142.6955  140.5209  167.5268 C.3     1  UNL1        0.1714
     17 C         143.0323  141.9787  167.4195 C.2     1  UNL1        0.1957
     18 O         143.4479  142.7443  168.6406 O.2     1  UNL1       -0.2894
     19 C         142.9534  142.6708  166.0911 C.ar    1  UNL1        0.0640
     20 C         144.1979  142.8835  165.2811 C.ar    1  UNL1        0.0075
     21 C         144.1190  143.5756  163.9527 C.ar    1  UNL1        0.0299
     22 C         142.7956  144.0550  163.4341 C.ar    1  UNL1        0.1424
     23 F         142.7167  144.7471  162.1057 F       1  UNL1       -0.2041
     24 C         141.5512  143.8423  164.2441 C.ar    1  UNL1        0.0593
     25 C         141.6300  143.1503  165.5725 C.ar    1  UNL1        0.1451
     26 F         140.3855  142.9376  166.3825 F       1  UNL1       -0.2040
@<TRIPOS>BOND
     1     1     2    1
     2     2    10    1
     3    10    11   ar
     4    11    12   ar
     5    12    13   ar
     6    13    14   ar
     7    14    15   ar
     8     2     3    1
     9     3     4   am
    10     4     5    2
    11     4     6   am
    12     6    16    1
    13    16    17    1
    14    17    18    2
    15    17    19    1
    16    19    20   ar
    17    20    21   ar
    18    21    22   ar
    19    22    23    1
    20    22    24   ar
    21    24    25   ar
    22    25    26    1
    23     6     7   am
    24     7     8    2
    25     7     2    1
    26    15    10   ar
    27    25    19   ar
    28     3     9    1
@<TRIPOS>MOLECULE
*****
 26 28 0 0 0
SMALL
GASTEIGER

@<TRIPOS>ATOM
      1 C         137.7000  138.3621  167.0244 C.3     1  UNL1        0.0337
      2 C         138.7013  139.4788  167.0054 C.3     1  UNL1        0.1467
      3 N         138.5341  139.4435  168.4956 N.am    1  UNL1       -0.2806
      4 C         139.4232  140.4970  169.0869 C.2     1  UNL1        0.3106
      5 O         139.5699  140.8093  170.5466 O.2     1  UNL1       -0.2521
      6 N         140.1400  141.1833  167.9621 N.am    1  UNL1       -0.2050
      7 C         139.6938  140.5540  166.6757 C.2     1  UNL1        0.2527
      8 O         140.1586  140.9334  165.3008 O.2     1  UNL1       -0.2723
      9 H         137.9442  138.8357  168.9975 H       1  UNL1        0.1516
     10 C         138.6592  139.2806  165.5191 C.ar    1  UNL1        0.0020
     11 C         139.3784  138.1209  164.8964 C.ar    1  UNL1       -0.0023
     12 C         139.3363  137.9228  163.4102 C.ar    1  UNL1       -0.0003
     13 C         138.5748  138.8842  162.5467 C.ar    1  UNL1       -0.0000
     14 C         137.8556  140.0439  163.1693 C.ar    1  UNL1       -0.0003
     15 C         137.8977  140.2421  164.6555 C.ar    1  UNL1       -0.0023
     16 C         141.1293  142.3024  168.0996 C.3     1  UNL1        0.1714
     17 C         142.5965  142.0291  167.9490 C.2     1  UNL1        0.1957
     18 O         143.5660  142.5574  168.9644 O.2     1  UNL1       -0.2894
     19 C         143.0942  141.2275  166.7830 C.ar    1  UNL1        0.0640
     20 C         143.5858  141.9243  165.5490 C.ar    1  UNL1        0.0075
     21 C         144.0835  141.1226  164.3829 C.ar    1  UNL1        0.0299
     22 C         144.0896  139.6242  164.4508 C.ar    1  UNL1        0.1424
     23 F         144.5873  138.8226  163.2848 F       1  UNL1       -0.2041
     24 C         143.5980  138.9274  165.6848 C.ar    1  UNL1        0.0593
     25 C         143.1003  139.7290  166.8509 C.ar    1  UNL1        0.1451
     26 F         142.6087  139.0322  168.0849 F       1  UNL1       -0.2040
@<TRIPOS>BOND
     1     1     2    1
     2     2    10    1
     3    10    11   ar
     4    11    12   ar
     5    12    13   ar
     6    13    14   ar
     7    14    15   ar
     8     2     3    1
     9     3     4   am
    10     4     5    2
    11     4     6   am
    12     6    16    1
    13    16    17    1
    14    17    18    2
    15    17    19    1
    16    19    20   ar
    17    20    21   ar
    18    21    22   ar
    19    22    23    1
    20    22    24   ar
    21    24    25   ar
    22    25    26    1
    23     6     7   am
    24     7     8    2
    25     7     2    1
    26    15    10   ar
    27    25    19   ar
    28     3     9    1
@<TRIPOS>MOLECULE
*****
 26 28 0 0 0
SMALL
GASTEIGER

@<TRIPOS>ATOM
      1 C         139.2313  138.5592  165.6274 C.3     1  UNL1        0.0337
      2 C         139.2133  140.0583  165.5790 C.3     1  UNL1        0.1467
      3 N         138.2894  139.8528  164.4153 N.am    1  UNL1       -0.2806
      4 C         137.8944  141.2023  163.8932 C.2     1  UNL1        0.3106
      5 O         136.9801  141.4660  162.7336 O.2     1  UNL1       -0.2521
      6 N         138.5741  142.2419  164.7341 N.am    1  UNL1       -0.2050
      7 C         139.3893  141.5348  165.7760 C.2     1  UNL1        0.2527
      8 O         140.2324  142.1894  166.8300 O.2     1  UNL1       -0.2723
      9 H         137.9942  138.9846  164.0571 H       1  UNL1        0.1516
     10 C         140.1410  139.9503  166.7529 C.ar    1  UNL1        0.0020
     11 C         141.6098  139.7422  166.5313 C.ar    1  UNL1       -0.0023
     12 C         142.5374  139.6343  167.7051 C.ar    1  UNL1       -0.0003
     13 C         141.9962  139.7345  169.1005 C.ar    1  UNL1       -0.0000
     14 C         140.5273  139.9426  169.3220 C.ar    1  UNL1       -0.0003
     15 C         139.5997  140.0505  168.1482 C.ar    1  UNL1       -0.0023
     16 C         138.4589  143.7276  164.5632 C.3     1  UNL1        0.1714
     17 C         139.0517  144.3919  163.3559 C.2     1  UNL1        0.1957
     18 O         138.1755  145.1775  162.4259 O.2     1  UNL1       -0.2894
     19 C         140.5209  144.2704  163.0787 C.ar    1  UNL1        0.0640
     20 C         141.4925  145.1793  163.7715 C.ar    1  UNL1        0.0075
     21 C         142.9616  145.0578  163.4943 C.ar    1  UNL1        0.0299
     22 C         143.4592  144.0274  162.5244 C.ar    1  UNL1        0.1424
     23 F         144.9284  143.9060  162.2472 F       1  UNL1       -0.2041
     24 C         142.4876  143.1185  161.8317 C.ar    1  UNL1        0.0593
     25 C         141.0185  143.2400  162.1088 C.ar    1  UNL1        0.1451
     26 F         140.0469  142.3310  161.4161 F       1  UNL1       -0.2040
@<TRIPOS>BOND
     1     1     2    1
     2     2    10    1
     3    10    11   ar
     4    11    12   ar
     5    12    13   ar
     6    13    14   ar
     7    14    15   ar
     8     2     3    1
     9     3     4   am
    10     4     5    2
    11     4     6   am
    12     6    16    1
    13    16    17    1
    14    17    18    2
    15    17    19    1
    16    19    20   ar
    17    20    21   ar
    18    21    22   ar
    19    22    23    1
    20    22    24   ar
    21    24    25   ar
    22    25    26    1
    23     6     7   am
    24     7     8    2
    25     7     2    1
    26    15    10   ar
    27    25    19   ar
    28     3     9    1
@<TRIPOS>MOLECULE
*****
 26 28 0 0 0
SMALL
GASTEIGER

@<TRIPOS>ATOM
      1 C         139.2425  137.5103  165.0293 C.3     1  UNL1        0.0337
      2 C         139.6682  138.6356  164.1335 C.3     1  UNL1        0.1467
      3 N         138.4872  138.2169  163.3089 N.am    1  UNL1       -0.2806
      4 C         138.4114  139.1218  162.1150 C.2     1  UNL1        0.3106
      5 O         137.3821  139.0597  161.0257 O.2     1  UNL1       -0.2521
      6 N         139.5455  140.0997  162.2017 N.am    1  UNL1       -0.2050
      7 C         140.3222  139.7992  163.4492 C.2     1  UNL1        0.2527
      8 O         141.5394  140.5334  163.9284 O.2     1  UNL1       -0.2723
      9 H         137.8702  137.4780  163.5151 H       1  UNL1        0.1516
     10 C         140.7602  138.8189  165.1455 C.ar    1  UNL1        0.0020
     11 C         140.5361  139.6983  166.3398 C.ar    1  UNL1       -0.0023
     12 C         141.6280  139.8817  167.3516 C.ar    1  UNL1       -0.0003
     13 C         142.9442  139.1856  167.1692 C.ar    1  UNL1       -0.0000
     14 C         143.1684  138.3062  165.9749 C.ar    1  UNL1       -0.0003
     15 C         142.0764  138.1229  164.9630 C.ar    1  UNL1       -0.0023
     16 C         139.8494  141.1872  161.2143 C.3     1  UNL1        0.1714
     17 C         139.0643  142.4650  161.2407 C.2     1  UNL1        0.1957
     18 O         138.4352  142.9850  159.9822 O.2     1  UNL1       -0.2894
     19 C         138.9083  143.2229  162.5257 C.ar    1  UNL1        0.0640
     20 C         139.8889  144.2996  162.8852 C.ar    1  UNL1        0.0075
     21 C         139.7329  145.0575  164.1702 C.ar    1  UNL1        0.0299
     22 C         138.5964  144.7388  165.0958 C.ar    1  UNL1        0.1424
     23 F         138.4404  145.4967  166.3808 F       1  UNL1       -0.2041
     24 C         137.6158  143.6621  164.7363 C.ar    1  UNL1        0.0593
     25 C         137.7717  142.9042  163.4513 C.ar    1  UNL1        0.1451
     26 F         136.7911  141.8276  163.0918 F       1  UNL1       -0.2040
@<TRIPOS>BOND
     1     1     2    1
     2     2    10    1
     3    10    11   ar
     4    11    12   ar
     5    12    13   ar
     6    13    14   ar
     7    14    15   ar
     8     2     3    1
     9     3     4   am
    10     4     5    2
    11     4     6   am
    12     6    16    1
    13    16    17    1
    14    17    18    2
    15    17    19    1
    16    19    20   ar
    17    20    21   ar
    18    21    22   ar
    19    22    23    1
    20    22    24   ar
    21    24    25   ar
    22    25    26    1
    23     6     7   am
    24     7     8    2
    25     7     2    1
    26    15    10   ar
    27    25    19   ar
    28     3     9    1
@<TRIPOS>MOLECULE
*****
 26 28 0 0 0
SMALL
GASTEIGER

@<TRIPOS>ATOM
      1 C         138.5623  138.8446  166.2506 C.3     1  UNL1        0.0337
      2 C         138.9905  140.2289  165.8630 C.3     1  UNL1        0.1467
      3 N         137.8879  140.1172  164.8522 N.am    1  UNL1       -0.2806
      4 C         137.8465  141.3952  164.0682 C.2     1  UNL1        0.3106
      5 O         136.8951  141.7154  162.9537 O.2     1  UNL1       -0.2521
      6 N         138.9235  142.2969  164.5943 N.am    1  UNL1       -0.2050
      7 C         139.6306  141.5761  165.7036 C.2     1  UNL1        0.2527
      8 O         140.7766  142.1090  166.5116 O.2     1  UNL1       -0.2723
      9 H         137.2954  139.3412  164.7256 H       1  UNL1        0.1516
     10 C         140.0037  140.0513  166.9548 C.ar    1  UNL1        0.0020
     11 C         141.4018  139.6245  166.6184 C.ar    1  UNL1       -0.0023
     12 C         142.4148  139.4468  167.7102 C.ar    1  UNL1       -0.0003
     13 C         142.0298  139.6960  169.1384 C.ar    1  UNL1       -0.0000
     14 C         140.6318  140.1228  169.4748 C.ar    1  UNL1       -0.0003
     15 C         139.6187  140.3004  168.3830 C.ar    1  UNL1       -0.0023
     16 C         139.2382  143.6771  164.0984 C.3     1  UNL1        0.1714
     17 C         140.3158  143.8785  163.0744 C.2     1  UNL1        0.1957
     18 O         139.9892  144.5183  161.7576 O.2     1  UNL1       -0.2894
     19 C         141.7201  143.4400  163.3674 C.ar    1  UNL1        0.0640
     20 C         142.1317  142.0207  163.1104 C.ar    1  UNL1        0.0075
     21 C         143.5359  141.5822  163.4033 C.ar    1  UNL1        0.0299
     22 C         144.5286  142.5630  163.9533 C.ar    1  UNL1        0.1424
     23 F         145.9328  142.1246  164.2463 F       1  UNL1       -0.2041
     24 C         144.1170  143.9824  164.2103 C.ar    1  UNL1        0.0593
     25 C         142.7128  144.4209  163.9174 C.ar    1  UNL1        0.1451
     26 F         142.3012  145.8403  164.1744 F       1  UNL1       -0.2040
@<TRIPOS>BOND
     1     1     2    1
     2     2    10    1
     3    10    11   ar
     4    11    12   ar
     5    12    13   ar
     6    13    14   ar
     7    14    15   ar
     8     2     3    1
     9     3     4   am
    10     4     5    2
    11     4     6   am
    12     6    16    1
    13    16    17    1
    14    17    18    2
    15    17    19    1
    16    19    20   ar
    17    20    21   ar
    18    21    22   ar
    19    22    23    1
    20    22    24   ar
    21    24    25   ar
    22    25    26    1
    23     6     7   am
    24     7     8    2
    25     7     2    1
    26    15    10   ar
    27    25    19   ar
    28     3     9    1
@<TRIPOS>MOLECULE
*****
 26 28 0 0 0
SMALL
GASTEIGER

@<TRIPOS>ATOM
      1 C         142.8122  138.4055  165.6488 C.3     1  UNL1        0.0337
      2 C         142.3278  139.3766  164.6133 C.3     1  UNL1        0.1467
      3 N         143.7845  139.5052  164.2796 N.am    1  UNL1       -0.2806
      4 C         143.9170  140.4864  163.1528 C.2     1  UNL1        0.3106
      5 O         145.1992  140.9146  162.5028 O.2     1  UNL1       -0.2521
      6 N         142.5422  140.9643  162.7902 N.am    1  UNL1       -0.2050
      7 C         141.5600  140.2784  163.6928 C.2     1  UNL1        0.2527
      8 O         140.0713  140.4620  163.6776 O.2     1  UNL1       -0.2723
      9 H         144.5238  139.0291  164.7223 H       1  UNL1        0.1516
     10 C         140.9723  139.0450  165.1636 C.ar    1  UNL1        0.0020
     11 C         140.3895  139.8720  166.2710 C.ar    1  UNL1       -0.0023
     12 C         139.0341  139.5403  166.8212 C.ar    1  UNL1       -0.0003
     13 C         138.2614  138.3817  166.2640 C.ar    1  UNL1       -0.0000
     14 C         138.8442  137.5546  165.1566 C.ar    1  UNL1       -0.0003
     15 C         140.1996  137.8863  164.6064 C.ar    1  UNL1       -0.0023
     16 C         142.2083  141.9543  161.7139 C.3     1  UNL1        0.1714
     17 C         141.9210  143.3824  162.0715 C.2     1  UNL1        0.1957
     18 O         142.8326  144.4734  161.5931 O.2     1  UNL1       -0.2894
     19 C         140.7221  143.7196  162.9075 C.ar    1  UNL1        0.0640
     20 C         139.4068  144.0128  162.2487 C.ar    1  UNL1        0.0075
     21 C         138.2079  144.3500  163.0846 C.ar    1  UNL1        0.0299
     22 C         138.3242  144.3941  164.5794 C.ar    1  UNL1        0.1424
     23 F         137.1253  144.7313  165.4154 F       1  UNL1       -0.2041
     24 C         139.6395  144.1010  165.2383 C.ar    1  UNL1        0.0593
     25 C         140.8384  143.7638  164.4024 C.ar    1  UNL1        0.1451
     26 F         142.1537  143.4707  165.0612 F       1  UNL1       -0.2040
@<TRIPOS>BOND
     1     1     2    1
     2     2    10    1
     3    10    11   ar
     4    11    12   ar
     5    12    13   ar
     6    13    14   ar
     7    14    15   ar
     8     2     3    1
     9     3     4   am
    10     4     5    2
    11     4     6   am
    12     6    16    1
    13    16    17    1
    14    17    18    2
    15    17    19    1
    16    19    20   ar
    17    20    21   ar
    18    21    22   ar
    19    22    23    1
    20    22    24   ar
    21    24    25   ar
    22    25    26    1
    23     6     7   am
    24     7     8    2
    25     7     2    1
    26    15    10   ar
    27    25    19   ar
    28     3     9    1
@<TRIPOS>MOLECULE
*****
 26 28 0 0 0
SMALL
GASTEIGER

@<TRIPOS>ATOM
      1 C         143.1064  138.4577  166.0932 C.3     1  UNL1        0.0337
      2 C         143.1822  139.9476  165.9367 C.3     1  UNL1        0.1467
      3 N         144.2100  139.6277  164.8921 N.am    1  UNL1       -0.2806
      4 C         144.7029  140.9217  164.3152 C.2     1  UNL1        0.3106
      5 O         145.7373  141.0700  163.2391 O.2     1  UNL1       -0.2521
      6 N         143.9797  142.0412  165.0033 N.am    1  UNL1       -0.2050
      7 C         143.0399  141.4392  166.0055 C.2     1  UNL1        0.2527
      8 O         142.1193  142.1960  166.9165 O.2     1  UNL1       -0.2723
      9 H         144.5087  138.7267  164.6309 H       1  UNL1        0.1516
     10 C         142.1386  139.9560  167.0141 C.ar    1  UNL1        0.0020
     11 C         142.5494  139.9309  168.4565 C.ar    1  UNL1       -0.0023
     12 C         141.5057  139.9393  169.5338 C.ar    1  UNL1       -0.0003
     13 C         140.0512  139.9727  169.1687 C.ar    1  UNL1       -0.0000
     14 C         139.6404  139.9978  167.7263 C.ar    1  UNL1       -0.0003
     15 C         140.6840  139.9894  166.6490 C.ar    1  UNL1       -0.0023
     16 C         144.1640  143.5057  164.7361 C.3     1  UNL1        0.1714
     17 C         143.4821  144.1457  163.5633 C.2     1  UNL1        0.1957
     18 O         144.2807  144.9416  162.5740 O.2     1  UNL1       -0.2894
     19 C         142.0015  143.9898  163.3798 C.ar    1  UNL1        0.0640
     20 C         141.0631  145.0089  163.9548 C.ar    1  UNL1        0.0075
     21 C         139.5825  144.8530  163.7714 C.ar    1  UNL1        0.0299
     22 C         139.0404  143.6779  163.0130 C.ar    1  UNL1        0.1424
     23 F         137.5598  143.5219  162.8295 F       1  UNL1       -0.2041
     24 C         139.9788  142.6587  162.4380 C.ar    1  UNL1        0.0593
     25 C         141.4593  142.8146  162.6214 C.ar    1  UNL1        0.1451
     26 F         142.3978  141.7954  162.0464 F       1  UNL1       -0.2040
@<TRIPOS>BOND
     1     1     2    1
     2     2    10    1
     3    10    11   ar
     4    11    12   ar
     5    12    13   ar
     6    13    14   ar
     7    14    15   ar
     8     2     3    1
     9     3     4   am
    10     4     5    2
    11     4     6   am
    12     6    16    1
    13    16    17    1
    14    17    18    2
    15    17    19    1
    16    19    20   ar
    17    20    21   ar
    18    21    22   ar
    19    22    23    1
    20    22    24   ar
    21    24    25   ar
    22    25    26    1
    23     6     7   am
    24     7     8    2
    25     7     2    1
    26    15    10   ar
    27    25    19   ar
    28     3     9    1
@<TRIPOS>MOLECULE
*****
 26 28 0 0 0
SMALL
GASTEIGER

@<TRIPOS>ATOM
      1 C         144.0987  139.1413  165.3136 C.3     1  UNL1        0.0337
      2 C         142.6000  139.0960  165.2737 C.3     1  UNL1        0.1467
      3 N         142.8144  138.2946  164.0240 N.am    1  UNL1       -0.2806
      4 C         141.4689  137.9235  163.4747 C.2     1  UNL1        0.3106
      5 O         141.2141  137.1213  162.2332 O.2     1  UNL1       -0.2521
      6 N         140.4228  138.4955  164.3849 N.am    1  UNL1       -0.2050
      7 C         141.1219  139.2201  165.4968 C.2     1  UNL1        0.2527
      8 O         140.4592  139.9422  166.6324 O.2     1  UNL1       -0.2723
      9 H         143.6854  138.0544  163.6329 H       1  UNL1        0.1516
     10 C         142.6989  139.9068  166.5318 C.ar    1  UNL1        0.0020
     11 C         142.6778  139.2245  167.8674 C.ar    1  UNL1       -0.0023
     12 C         142.7767  140.0354  169.1255 C.ar    1  UNL1       -0.0003
     13 C         142.8968  141.5286  169.0478 C.ar    1  UNL1       -0.0000
     14 C         142.9179  142.2109  167.7122 C.ar    1  UNL1       -0.0003
     15 C         142.8190  141.4000  166.4542 C.ar    1  UNL1       -0.0023
     16 C         138.9383  138.3657  164.2135 C.3     1  UNL1        0.1714
     17 C         138.2584  139.0172  163.0458 C.2     1  UNL1        0.1957
     18 O         137.7183  138.1761  161.9274 O.2     1  UNL1       -0.2894
     19 C         138.1187  140.5098  162.9966 C.ar    1  UNL1        0.0640
     20 C         137.9406  141.2887  164.2662 C.ar    1  UNL1        0.0075
     21 C         137.8009  142.7813  164.2170 C.ar    1  UNL1        0.0299
     22 C         137.8391  143.4952  162.8984 C.ar    1  UNL1        0.1424
     23 F         137.6993  144.9879  162.8492 F       1  UNL1       -0.2041
     24 C         138.0171  142.7164  161.6288 C.ar    1  UNL1        0.0593
     25 C         138.1569  141.2238  161.6779 C.ar    1  UNL1        0.1451
     26 F         138.3349  140.4450  160.4084 F       1  UNL1       -0.2040
@<TRIPOS>BOND
     1     1     2    1
     2     2    10    1
     3    10    11   ar
     4    11    12   ar
     5    12    13   ar
     6    13    14   ar
     7    14    15   ar
     8     2     3    1
     9     3     4   am
    10     4     5    2
    11     4     6   am
    12     6    16    1
    13    16    17    1
    14    17    18    2
    15    17    19    1
    16    19    20   ar
    17    20    21   ar
    18    21    22   ar
    19    22    23    1
    20    22    24   ar
    21    24    25   ar
    22    25    26    1
    23     6     7   am
    24     7     8    2
    25     7     2    1
    26    15    10   ar
    27    25    19   ar
    28     3     9    1
@<TRIPOS>MOLECULE
*****
 26 28 0 0 0
SMALL
GASTEIGER

@<TRIPOS>ATOM
      1 C         142.3204  145.0957  163.7984 C.3     1  UNL1        0.0337
      2 C         142.2513  143.5973  163.8094 C.3     1  UNL1        0.1467
      3 N         143.7466  143.6859  163.8891 N.am    1  UNL1       -0.2806
      4 C         144.2920  142.2893  163.9322 C.2     1  UNL1        0.3106
      5 O         145.7411  141.9109  164.0140 O.2     1  UNL1       -0.2521
      6 N         143.1339  141.3375  163.8792 N.am    1  UNL1       -0.2050
      7 C         141.8727  142.1459  163.8033 C.2     1  UNL1        0.2527
      8 O         140.4776  141.5989  163.7336 O.2     1  UNL1       -0.2723
      9 H         144.2769  144.5151  163.9095 H       1  UNL1        0.1516
     10 C         140.7705  143.8220  163.7275 C.ar    1  UNL1        0.0020
     11 C         140.0924  143.8721  162.3905 C.ar    1  UNL1       -0.0023
     12 C         138.6116  144.0967  162.3085 C.ar    1  UNL1       -0.0003
     13 C         137.8089  144.2713  163.5636 C.ar    1  UNL1       -0.0000
     14 C         138.4870  144.2212  164.9006 C.ar    1  UNL1       -0.0003
     15 C         139.9678  143.9966  164.9825 C.ar    1  UNL1       -0.0023
     16 C         143.2216  139.8402  163.8987 C.3     1  UNL1        0.1714
     17 C         142.8713  139.0846  165.1463 C.2     1  UNL1        0.1957
     18 O         143.9492  138.4113  165.9430 O.2     1  UNL1       -0.2894
     19 C         141.4430  139.0023  165.5971 C.ar    1  UNL1        0.0640
     20 C         140.9568  139.8801  166.7121 C.ar    1  UNL1        0.0075
     21 C         139.5285  139.7978  167.1629 C.ar    1  UNL1        0.0299
     22 C         138.5864  138.8379  166.4989 C.ar    1  UNL1        0.1424
     23 F         137.1582  138.7557  166.9497 F       1  UNL1       -0.2041
     24 C         139.0727  137.9602  165.3839 C.ar    1  UNL1        0.0593
     25 C         140.5009  138.0424  164.9330 C.ar    1  UNL1        0.1451
     26 F         140.9872  137.1647  163.8180 F       1  UNL1       -0.2040
@<TRIPOS>BOND
     1     1     2    1
     2     2    10    1
     3    10    11   ar
     4    11    12   ar
     5    12    13   ar
     6    13    14   ar
     7    14    15   ar
     8     2     3    1
     9     3     4   am
    10     4     5    2
    11     4     6   am
    12     6    16    1
    13    16    17    1
    14    17    18    2
    15    17    19    1
    16    19    20   ar
    17    20    21   ar
    18    21    22   ar
    19    22    23    1
    20    22    24   ar
    21    24    25   ar
    22    25    26    1
    23     6     7   am
    24     7     8    2
    25     7     2    1
    26    15    10   ar
    27    25    19   ar
    28     3     9    1
