@<TRIPOS>MOLECULE
*****
 31 35 0 0 0
SMALL
GASTEIGER

@<TRIPOS>ATOM
      1 C         142.6545  140.0821  166.8599 C.ar    1  UNL1        0.0223
      2 C         143.3345  138.8095  166.4501 C.ar    1  UNL1        0.0989
      3 N         143.7554  138.6096  165.0243 N.ar    1  UNL1       -0.2437
      4 C         143.4963  139.6823  164.0084 C.ar    1  UNL1        0.0844
      5 C         143.9933  139.2828  162.6507 C.ar    1  UNL1        0.0192
      6 C         143.9330  140.0573  161.3674 C.ar    1  UNL1        0.0016
      7 C         143.3609  141.4225  161.1251 C.ar    1  UNL1        0.0032
      8 C         143.5048  141.8300  159.6886 C.ar    1  UNL1        0.0014
      9 C         142.9956  143.1653  159.2332 C.ar    1  UNL1        0.0159
     10 C         142.3424  144.0932  160.2141 C.ar    1  UNL1        0.0659
     11 C         142.1984  143.6859  161.6505 C.ar    1  UNL1        0.0191
     12 C         142.7077  142.3505  162.1060 C.ar    1  UNL1        0.0403
     13 C         142.4653  142.1424  163.5716 C.ar    1  UNL1        0.1970
     14 O         141.7816  143.2710  164.2848 O.2     1  UNL1       -0.2865
     15 C         142.8163  140.9549  164.4182 C.ar    1  UNL1        0.0566
     16 C         142.3954  141.1548  165.8440 C.ar    1  UNL1        0.0063
     17 C         140.5544  142.1736  171.2298 C.3     1  UNL1        0.1538
     18 N         141.2682  141.2434  170.2944 N.ar    1  UNL1       -0.2473
     19 C         141.4723  141.4572  168.8238 C.ar    1  UNL1        0.0967
     20 C         142.2336  140.2820  168.2857 C.ar    1  UNL1        0.0411
     21 C         142.5000  139.3419  169.4238 C.ar    1  UNL1        0.1217
     22 N         141.9034  139.9361  170.6652 N.ar    1  UNL1       -0.1676
     23 N         141.8331  145.4287  159.7586 N.pl3   1  UNL1       -0.2052
     24 H         142.0205  146.2349  160.2917 H       1  UNL1        0.1748
     25 S         141.0384  145.5356  158.4910 S.O2    1  UNL1        0.1130
     26 O         139.8647  144.8973  159.1731 O.2     1  UNL1       -0.1379
     27 O         142.2119  146.1739  157.8089 O.2     1  UNL1       -0.1379
     28 N         140.2435  145.6425  157.2234 N.3     1  UNL1       -0.1427
     29 C         139.7799  144.6728  156.1772 C.3     1  UNL1        0.0986
     30 C         139.1194  145.7937  155.4308 C.3     1  UNL1        0.0384
     31 C         139.5830  146.7635  156.4770 C.3     1  UNL1        0.0986
@<TRIPOS>BOND
     1    17    18    1
     2    18    19   ar
     3    19    20   ar
     4    20     1    1
     5     1     2   ar
     6     2     3   ar
     7     3     4   ar
     8     4     5   ar
     9     5     6   ar
    10     6     7   ar
    11     7     8   ar
    12     8     9   ar
    13     9    10   ar
    14    10    23    1
    15    23    25    1
    16    25    26    2
    17    25    27    2
    18    25    28    1
    19    28    29    1
    20    29    30    1
    21    30    31    1
    22    10    11   ar
    23    11    12   ar
    24    12    13   ar
    25    13    14    2
    26    13    15   ar
    27    15    16   ar
    28    20    21   ar
    29    21    22   ar
    30    22    18   ar
    31    16     1   ar
    32    15     4   ar
    33    12     7   ar
    34    31    28    1
    35    23    24    1
@<TRIPOS>MOLECULE
*****
 31 35 0 0 0
SMALL
GASTEIGER

@<TRIPOS>ATOM
      1 C         141.1860  138.3672  158.7147 C.ar    1  UNL1        0.0223
      2 C         139.7732  138.6848  158.3237 C.ar    1  UNL1        0.0989
      3 N         138.7761  139.0815  159.3717 N.ar    1  UNL1       -0.2437
      4 C         139.1918  139.1605  160.8108 C.ar    1  UNL1        0.0844
      5 C         138.0485  139.5733  161.6896 C.ar    1  UNL1        0.0192
      6 C         138.0356  139.7704  163.1766 C.ar    1  UNL1        0.0016
      7 C         139.1629  139.6034  164.1519 C.ar    1  UNL1        0.0032
      8 C         138.7226  139.9011  165.5546 C.ar    1  UNL1        0.0014
      9 C         139.7008  139.7934  166.6865 C.ar    1  UNL1        0.0159
     10 C         141.1194  139.3880  166.4158 C.ar    1  UNL1        0.0659
     11 C         141.5597  139.0904  165.0132 C.ar    1  UNL1        0.0191
     12 C         140.5815  139.1981  163.8812 C.ar    1  UNL1        0.0403
     13 C         141.2231  138.8596  162.5682 C.ar    1  UNL1        0.1970
     14 O         142.6752  138.4889  162.6300 O.2     1  UNL1       -0.2865
     15 C         140.6047  138.8429  161.2018 C.ar    1  UNL1        0.0566
     16 C         141.6018  138.4462  160.1538 C.ar    1  UNL1        0.0063
     17 C         143.9948  135.4977  155.2857 C.3     1  UNL1        0.1538
     18 N         143.4742  136.6515  156.0906 N.ar    1  UNL1       -0.2473
     19 C         142.3755  136.5910  157.1099 C.ar    1  UNL1        0.0967
     20 C         142.1832  137.9705  157.6667 C.ar    1  UNL1        0.0411
     21 C         143.1631  138.8836  156.9915 C.ar    1  UNL1        0.1217
     22 N         143.9611  138.0685  156.0174 N.ar    1  UNL1       -0.1676
     23 N         142.0977  139.2803  167.5478 N.pl3   1  UNL1       -0.2052
     24 H         142.5760  138.4345  167.7064 H       1  UNL1        0.1748
     25 S         142.3473  140.4613  168.4383 S.O2    1  UNL1        0.1130
     26 O         142.8367  141.2475  167.2582 O.2     1  UNL1       -0.1379
     27 O         141.8580  139.6752  169.6183 O.2     1  UNL1       -0.1379
     28 N         142.5969  141.6424  169.3287 N.3     1  UNL1       -0.1427
     29 C         143.8191  142.3456  169.8402 C.3     1  UNL1        0.0986
     30 C         142.9500  143.3127  170.5879 C.3     1  UNL1        0.0384
     31 C         141.7276  142.6096  170.0764 C.3     1  UNL1        0.0986
@<TRIPOS>BOND
     1    17    18    1
     2    18    19   ar
     3    19    20   ar
     4    20     1    1
     5     1     2   ar
     6     2     3   ar
     7     3     4   ar
     8     4     5   ar
     9     5     6   ar
    10     6     7   ar
    11     7     8   ar
    12     8     9   ar
    13     9    10   ar
    14    10    23    1
    15    23    25    1
    16    25    26    2
    17    25    27    2
    18    25    28    1
    19    28    29    1
    20    29    30    1
    21    30    31    1
    22    10    11   ar
    23    11    12   ar
    24    12    13   ar
    25    13    14    2
    26    13    15   ar
    27    15    16   ar
    28    20    21   ar
    29    21    22   ar
    30    22    18   ar
    31    16     1   ar
    32    15     4   ar
    33    12     7   ar
    34    31    28    1
    35    23    24    1
@<TRIPOS>MOLECULE
*****
 31 35 0 0 0
SMALL
GASTEIGER

@<TRIPOS>ATOM
      1 C         140.1517  142.3570  159.6313 C.ar    1  UNL1        0.0223
      2 C         139.7600  141.1753  158.7945 C.ar    1  UNL1        0.0989
      3 N         139.3218  139.9015  159.4542 N.ar    1  UNL1       -0.2437
      4 C         139.2753  139.8092  160.9506 C.ar    1  UNL1        0.0844
      5 C         138.8122  138.4558  161.4021 C.ar    1  UNL1        0.0192
      6 C         138.6265  137.9497  162.8019 C.ar    1  UNL1        0.0016
      7 C         138.8579  138.6722  164.0959 C.ar    1  UNL1        0.0032
      8 C         138.5496  137.7973  165.2747 C.ar    1  UNL1        0.0014
      9 C         138.7155  138.3293  166.6673 C.ar    1  UNL1        0.0159
     10 C         139.1898  139.7362  166.8812 C.ar    1  UNL1        0.0659
     11 C         139.4982  140.6110  165.7024 C.ar    1  UNL1        0.0191
     12 C         139.3323  140.0790  164.3097 C.ar    1  UNL1        0.0403
     13 C         139.6923  141.1110  163.2823 C.ar    1  UNL1        0.1970
     14 O         140.1364  142.4385  163.8212 O.2     1  UNL1       -0.2865
     15 C         139.6669  140.9909  161.7874 C.ar    1  UNL1        0.0566
     16 C         140.1051  142.2647  161.1278 C.ar    1  UNL1        0.0063
     17 C         140.3892  146.4935  156.3581 C.3     1  UNL1        0.1538
     18 N         140.6991  145.5323  157.4671 N.ar    1  UNL1       -0.2473
     19 C         139.9330  144.2842  157.7920 C.ar    1  UNL1        0.0967
     20 C         140.5899  143.6309  158.9717 C.ar    1  UNL1        0.0411
     21 C         141.7620  144.4752  159.3759 C.ar    1  UNL1        0.1217
     22 N         141.8295  145.6503  158.4461 N.ar    1  UNL1       -0.1676
     23 N         139.3558  140.2683  168.2738 N.pl3   1  UNL1       -0.2052
     24 H         138.6013  140.2380  168.9056 H       1  UNL1        0.1748
     25 S         140.6714  140.8465  168.7039 S.O2    1  UNL1        0.1130
     26 O         141.3089  139.4952  168.5703 O.2     1  UNL1       -0.1379
     27 O         140.0340  142.1977  168.8375 O.2     1  UNL1       -0.1379
     28 N         141.9870  141.4247  169.1339 N.3     1  UNL1       -0.1427
     29 C         142.9233  142.4576  168.5805 C.3     1  UNL1        0.0986
     30 C         143.8475  142.2423  169.7421 C.3     1  UNL1        0.0384
     31 C         142.9113  141.2093  170.2956 C.3     1  UNL1        0.0986
@<TRIPOS>BOND
     1    17    18    1
     2    18    19   ar
     3    19    20   ar
     4    20     1    1
     5     1     2   ar
     6     2     3   ar
     7     3     4   ar
     8     4     5   ar
     9     5     6   ar
    10     6     7   ar
    11     7     8   ar
    12     8     9   ar
    13     9    10   ar
    14    10    23    1
    15    23    25    1
    16    25    26    2
    17    25    27    2
    18    25    28    1
    19    28    29    1
    20    29    30    1
    21    30    31    1
    22    10    11   ar
    23    11    12   ar
    24    12    13   ar
    25    13    14    2
    26    13    15   ar
    27    15    16   ar
    28    20    21   ar
    29    21    22   ar
    30    22    18   ar
    31    16     1   ar
    32    15     4   ar
    33    12     7   ar
    34    31    28    1
    35    23    24    1
@<TRIPOS>MOLECULE
*****
 31 35 0 0 0
SMALL
GASTEIGER

@<TRIPOS>ATOM
      1 C         140.8634  138.6817  158.1677 C.ar    1  UNL1        0.0223
      2 C         142.3164  138.4762  157.8571 C.ar    1  UNL1        0.0989
      3 N         143.3222  138.4337  158.9691 N.ar    1  UNL1       -0.2437
      4 C         142.8750  138.5968  160.3916 C.ar    1  UNL1        0.0844
      5 C         144.0331  138.5231  161.3420 C.ar    1  UNL1        0.0192
      6 C         144.0243  138.6367  162.8377 C.ar    1  UNL1        0.0016
      7 C         142.8551  138.8521  163.7523 C.ar    1  UNL1        0.0032
      8 C         143.2853  138.9062  165.1883 C.ar    1  UNL1        0.0014
      9 C         142.2664  139.1152  166.2691 C.ar    1  UNL1        0.0159
     10 C         140.8173  139.2702  165.9139 C.ar    1  UNL1        0.0659
     11 C         140.3871  139.2161  164.4780 C.ar    1  UNL1        0.0191
     12 C         141.4060  139.0070  163.3971 C.ar    1  UNL1        0.0403
     13 C         140.7681  138.9849  162.0396 C.ar    1  UNL1        0.1970
     14 O         139.2798  139.1697  162.0168 O.2     1  UNL1       -0.2865
     15 C         141.4220  138.8023  160.7021 C.ar    1  UNL1        0.0566
     16 C         140.4162  138.8447  159.5901 C.ar    1  UNL1        0.0063
     17 C         138.0440  137.3888  153.8943 C.3     1  UNL1        0.1538
     18 N         138.5616  138.1298  155.0914 N.ar    1  UNL1       -0.2473
     19 C         139.6739  137.6819  155.9926 C.ar    1  UNL1        0.0967
     20 C         139.8575  138.7241  157.0557 C.ar    1  UNL1        0.0411
     21 C         138.8586  139.8162  156.8116 C.ar    1  UNL1        0.1217
     22 N         138.0576  139.4489  155.5976 N.ar    1  UNL1       -0.1676
     23 N         139.7984  139.4792  166.9948 N.pl3   1  UNL1       -0.2052
     24 H         139.0442  138.8533  167.0880 H       1  UNL1        0.1748
     25 S         139.9287  140.6418  167.9335 S.O2    1  UNL1        0.1130
     26 O         139.8438  141.5884  166.7729 O.2     1  UNL1       -0.1379
     27 O         140.0136  139.6954  169.0941 O.2     1  UNL1       -0.1379
     28 N         140.0590  141.8045  168.8723 N.3     1  UNL1       -0.1427
     29 C         140.6699  143.1719  168.7887 C.3     1  UNL1        0.0986
     30 C         140.2433  143.4488  170.1998 C.3     1  UNL1        0.0384
     31 C         139.6322  142.0815  170.2834 C.3     1  UNL1        0.0986
@<TRIPOS>BOND
     1    17    18    1
     2    18    19   ar
     3    19    20   ar
     4    20     1    1
     5     1     2   ar
     6     2     3   ar
     7     3     4   ar
     8     4     5   ar
     9     5     6   ar
    10     6     7   ar
    11     7     8   ar
    12     8     9   ar
    13     9    10   ar
    14    10    23    1
    15    23    25    1
    16    25    26    2
    17    25    27    2
    18    25    28    1
    19    28    29    1
    20    29    30    1
    21    30    31    1
    22    10    11   ar
    23    11    12   ar
    24    12    13   ar
    25    13    14    2
    26    13    15   ar
    27    15    16   ar
    28    20    21   ar
    29    21    22   ar
    30    22    18   ar
    31    16     1   ar
    32    15     4   ar
    33    12     7   ar
    34    31    28    1
    35    23    24    1
@<TRIPOS>MOLECULE
*****
 31 35 0 0 0
SMALL
GASTEIGER

@<TRIPOS>ATOM
      1 C         139.4490  140.3011  166.9324 C.ar    1  UNL1        0.0223
      2 C         138.6667  139.0751  166.5656 C.ar    1  UNL1        0.0989
      3 N         138.3545  138.7872  165.1270 N.ar    1  UNL1       -0.2437
      4 C         138.8246  139.7254  164.0552 C.ar    1  UNL1        0.0844
      5 C         138.4081  139.2545  162.6933 C.ar    1  UNL1        0.0192
      6 C         138.6710  139.8934  161.3618 C.ar    1  UNL1        0.0016
      7 C         139.4154  141.1610  161.0635 C.ar    1  UNL1        0.0032
      8 C         139.4478  141.4438  159.5908 C.ar    1  UNL1        0.0014
      9 C         140.1456  142.6684  159.0774 C.ar    1  UNL1        0.0159
     10 C         140.8109  143.6101  160.0368 C.ar    1  UNL1        0.0659
     11 C         140.7785  143.3274  161.5095 C.ar    1  UNL1        0.0191
     12 C         140.0807  142.1028  162.0229 C.ar    1  UNL1        0.0403
     13 C         140.1660  142.0096  163.5176 C.ar    1  UNL1        0.1970
     14 O         140.9084  143.1214  164.1977 O.2     1  UNL1       -0.2865
     15 C         139.6069  140.9515  164.4220 C.ar    1  UNL1        0.0566
     16 C         139.9192  141.2394  165.8606 C.ar    1  UNL1        0.0063
     17 C         141.8806  142.0002  171.3007 C.3     1  UNL1        0.1538
     18 N         140.8790  141.3701  170.3789 N.ar    1  UNL1       -0.2473
     19 C         140.9757  141.3051  168.8835 C.ar    1  UNL1        0.0967
     20 C         139.7613  140.5890  168.3711 C.ar    1  UNL1        0.0411
     21 C         138.9140  140.2115  169.5498 C.ar    1  UNL1        0.1217
     22 N         139.6048  140.6942  170.7908 N.ar    1  UNL1       -0.1676
     23 N         141.5087  144.8348  159.5234 N.pl3   1  UNL1       -0.2052
     24 H         142.2671  145.2151  160.0230 H       1  UNL1        0.1748
     25 S         141.0510  145.4799  158.2490 S.O2    1  UNL1        0.1130
     26 O         139.7998  145.9446  158.9337 O.2     1  UNL1       -0.1379
     27 O         142.3021  145.0153  157.5643 O.2     1  UNL1       -0.1379
     28 N         140.5932  146.1251  156.9745 N.3     1  UNL1       -0.1427
     29 C         139.4791  147.0560  156.5976 C.3     1  UNL1        0.0986
     30 C         139.9458  147.0375  155.1722 C.3     1  UNL1        0.0384
     31 C         141.0600  146.1066  155.5491 C.3     1  UNL1        0.0986
@<TRIPOS>BOND
     1    17    18    1
     2    18    19   ar
     3    19    20   ar
     4    20     1    1
     5     1     2   ar
     6     2     3   ar
     7     3     4   ar
     8     4     5   ar
     9     5     6   ar
    10     6     7   ar
    11     7     8   ar
    12     8     9   ar
    13     9    10   ar
    14    10    23    1
    15    23    25    1
    16    25    26    2
    17    25    27    2
    18    25    28    1
    19    28    29    1
    20    29    30    1
    21    30    31    1
    22    10    11   ar
    23    11    12   ar
    24    12    13   ar
    25    13    14    2
    26    13    15   ar
    27    15    16   ar
    28    20    21   ar
    29    21    22   ar
    30    22    18   ar
    31    16     1   ar
    32    15     4   ar
    33    12     7   ar
    34    31    28    1
    35    23    24    1
@<TRIPOS>MOLECULE
*****
 31 35 0 0 0
SMALL
GASTEIGER

@<TRIPOS>ATOM
      1 C         138.5873  140.1236  163.9783 C.ar    1  UNL1        0.0223
      2 C         137.5625  141.0902  163.4631 C.ar    1  UNL1        0.0989
      3 N         137.4616  141.3627  161.9916 N.ar    1  UNL1       -0.2437
      4 C         138.3855  140.6686  161.0352 C.ar    1  UNL1        0.0844
      5 C         138.1180  141.0810  159.6180 C.ar    1  UNL1        0.0192
      6 C         138.8092  140.6286  158.3660 C.ar    1  UNL1        0.0016
      7 C         139.9387  139.6521  158.2220 C.ar    1  UNL1        0.0032
      8 C         140.3359  139.4816  156.7856 C.ar    1  UNL1        0.0014
      9 C         141.4502  138.5458  156.4216 C.ar    1  UNL1        0.0159
     10 C         142.1674  137.7805  157.4940 C.ar    1  UNL1        0.0659
     11 C         141.7702  137.9510  158.9303 C.ar    1  UNL1        0.0191
     12 C         140.6558  138.8868  159.2944 C.ar    1  UNL1        0.0403
     13 C         140.4206  138.9090  160.7757 C.ar    1  UNL1        0.1970
     14 O         141.3140  138.0208  161.5898 O.2     1  UNL1       -0.2865
     15 C         139.4102  139.7020  161.5504 C.ar    1  UNL1        0.0566
     16 C         139.5111  139.4295  163.0219 C.ar    1  UNL1        0.0063
     17 C         140.0687  140.3674  169.0406 C.3     1  UNL1        0.1538
     18 N         139.3692  139.9631  167.7768 N.ar    1  UNL1       -0.2473
     19 C         139.5980  140.5507  166.4158 C.ar    1  UNL1        0.0967
     20 C         138.6882  139.8511  165.4499 C.ar    1  UNL1        0.0411
     21 C         137.8972  138.8311  166.2140 C.ar    1  UNL1        0.1217
     22 N         138.3180  138.9003  167.6521 N.ar    1  UNL1       -0.1676
     23 N         143.2818  136.8447  157.1301 N.pl3   1  UNL1       -0.2052
     24 H         144.2110  137.1694  157.1114 H       1  UNL1        0.1748
     25 S         142.9803  135.4142  156.7945 S.O2    1  UNL1        0.1130
     26 O         143.4183  134.9997  158.1680 O.2     1  UNL1       -0.1379
     27 O         142.5424  135.8285  155.4210 O.2     1  UNL1       -0.1379
     28 N         142.6789  133.9835  156.4590 N.3     1  UNL1       -0.1427
     29 C         141.7766  133.2908  155.4812 C.3     1  UNL1        0.0986
     30 C         142.2525  131.9604  155.9845 C.3     1  UNL1        0.0384
     31 C         143.1548  132.6530  156.9624 C.3     1  UNL1        0.0986
@<TRIPOS>BOND
     1    17    18    1
     2    18    19   ar
     3    19    20   ar
     4    20     1    1
     5     1     2   ar
     6     2     3   ar
     7     3     4   ar
     8     4     5   ar
     9     5     6   ar
    10     6     7   ar
    11     7     8   ar
    12     8     9   ar
    13     9    10   ar
    14    10    23    1
    15    23    25    1
    16    25    26    2
    17    25    27    2
    18    25    28    1
    19    28    29    1
    20    29    30    1
    21    30    31    1
    22    10    11   ar
    23    11    12   ar
    24    12    13   ar
    25    13    14    2
    26    13    15   ar
    27    15    16   ar
    28    20    21   ar
    29    21    22   ar
    30    22    18   ar
    31    16     1   ar
    32    15     4   ar
    33    12     7   ar
    34    31    28    1
    35    23    24    1
@<TRIPOS>MOLECULE
*****
 31 35 0 0 0
SMALL
GASTEIGER

@<TRIPOS>ATOM
      1 C         142.7702  138.0985  157.9351 C.ar    1  UNL1        0.0223
      2 C         143.3217  139.3284  157.2770 C.ar    1  UNL1        0.0989
      3 N         143.7515  140.4974  158.1127 N.ar    1  UNL1       -0.2437
      4 C         143.6297  140.4366  159.6065 C.ar    1  UNL1        0.0844
      5 C         144.1127  141.7038  160.2477 C.ar    1  UNL1        0.0192
      6 C         144.1633  142.0540  161.7055 C.ar    1  UNL1        0.0016
      7 C         143.7436  141.2235  162.8819 C.ar    1  UNL1        0.0032
      8 C         143.9621  141.9535  164.1739 C.ar    1  UNL1        0.0014
      9 C         143.6066  141.2977  165.4753 C.ar    1  UNL1        0.0159
     10 C         143.0325  139.9120  165.4846 C.ar    1  UNL1        0.0659
     11 C         142.8140  139.1820  164.1926 C.ar    1  UNL1        0.0191
     12 C         143.1695  139.8377  162.8912 C.ar    1  UNL1        0.0403
     13 C         142.8734  138.9401  161.7264 C.ar    1  UNL1        0.1970
     14 O         142.2961  137.5987  162.0688 O.2     1  UNL1       -0.2865
     15 C         143.0782  139.2067  160.2646 C.ar    1  UNL1        0.0566
     16 C         142.6485  138.0376  159.4289 C.ar    1  UNL1        0.0063
     17 C         142.5549  133.2960  155.7508 C.3     1  UNL1        0.1538
     18 N         142.2415  134.7218  156.0953 N.ar    1  UNL1       -0.2473
     19 C         142.9978  135.5814  157.0644 C.ar    1  UNL1        0.0967
     20 C         142.3404  136.9293  157.0993 C.ar    1  UNL1        0.0411
     21 C         141.1779  136.9027  156.1518 C.ar    1  UNL1        0.1217
     22 N         141.1167  135.5385  155.5313 N.ar    1  UNL1       -0.1676
     23 N         142.6770  139.2562  166.7860 N.pl3   1  UNL1       -0.2052
     24 H         143.0076  138.3510  166.9876 H       1  UNL1        0.1748
     25 S         141.8177  139.9795  167.7802 S.O2    1  UNL1        0.1130
     26 O         140.6739  139.9541  166.8100 O.2     1  UNL1       -0.1379
     27 O         142.9614  140.0050  168.7504 O.2     1  UNL1       -0.1379
     28 N         140.9584  140.7029  168.7743 N.3     1  UNL1       -0.1427
     29 C         139.8613  140.3044  169.7164 C.3     1  UNL1        0.0986
     30 C         139.7431  141.7259  170.1802 C.3     1  UNL1        0.0384
     31 C         140.8402  142.1246  169.2381 C.3     1  UNL1        0.0986
@<TRIPOS>BOND
     1    17    18    1
     2    18    19   ar
     3    19    20   ar
     4    20     1    1
     5     1     2   ar
     6     2     3   ar
     7     3     4   ar
     8     4     5   ar
     9     5     6   ar
    10     6     7   ar
    11     7     8   ar
    12     8     9   ar
    13     9    10   ar
    14    10    23    1
    15    23    25    1
    16    25    26    2
    17    25    27    2
    18    25    28    1
    19    28    29    1
    20    29    30    1
    21    30    31    1
    22    10    11   ar
    23    11    12   ar
    24    12    13   ar
    25    13    14    2
    26    13    15   ar
    27    15    16   ar
    28    20    21   ar
    29    21    22   ar
    30    22    18   ar
    31    16     1   ar
    32    15     4   ar
    33    12     7   ar
    34    31    28    1
    35    23    24    1
@<TRIPOS>MOLECULE
*****
 31 35 0 0 0
SMALL
GASTEIGER

@<TRIPOS>ATOM
      1 C         139.7112  142.0721  164.1757 C.ar    1  UNL1        0.0223
      2 C         140.5104  143.3143  164.4367 C.ar    1  UNL1        0.0989
      3 N         140.8398  144.2452  163.3076 N.ar    1  UNL1       -0.2437
      4 C         140.3700  143.9339  161.9175 C.ar    1  UNL1        0.0844
      5 C         140.8049  144.9881  160.9431 C.ar    1  UNL1        0.0192
      6 C         140.5480  145.0605  159.4669 C.ar    1  UNL1        0.0016
      7 C         139.7928  144.0965  158.6008 C.ar    1  UNL1        0.0032
      8 C         139.7717  144.5460  157.1698 C.ar    1  UNL1        0.0014
      9 C         139.0657  143.7212  156.1349 C.ar    1  UNL1        0.0159
     10 C         138.3808  142.4468  156.5308 C.ar    1  UNL1        0.0659
     11 C         138.4019  141.9972  157.9617 C.ar    1  UNL1        0.0191
     12 C         139.1079  142.8221  158.9967 C.ar    1  UNL1        0.0403
     13 C         139.0091  142.1969  160.3567 C.ar    1  UNL1        0.1970
     14 O         138.2479  140.9062  160.4258 O.2     1  UNL1       -0.2865
     15 C         139.5708  142.6917  161.6565 C.ar    1  UNL1        0.0566
     16 C         139.2414  141.7608  162.7856 C.ar    1  UNL1        0.0063
     17 C         137.5072  138.2039  167.0147 C.3     1  UNL1        0.1538
     18 N         138.3686  139.3631  166.6097 N.ar    1  UNL1       -0.2473
     19 C         138.3692  140.0350  165.2687 C.ar    1  UNL1        0.0967
     20 C         139.3817  141.1412  165.3048 C.ar    1  UNL1        0.0411
     21 C         140.0069  141.1529  166.6682 C.ar    1  UNL1        0.1217
     22 N         139.3809  140.0540  167.4747 N.ar    1  UNL1       -0.1676
     23 N         137.6748  141.6219  155.4959 N.pl3   1  UNL1       -0.2052
     24 H         138.1578  141.3212  154.6924 H       1  UNL1        0.1748
     25 S         136.2327  141.2551  155.6851 S.O2    1  UNL1        0.1130
     26 O         135.8311  142.6607  155.3487 O.2     1  UNL1       -0.1379
     27 O         136.6342  139.8495  156.0214 O.2     1  UNL1       -0.1379
     28 N         134.7905  140.8883  155.8743 N.3     1  UNL1       -0.1427
     29 C         134.0431  139.9581  156.7831 C.3     1  UNL1        0.0986
     30 C         132.7511  140.3696  156.1419 C.3     1  UNL1        0.0384
     31 C         133.4985  141.3000  155.2331 C.3     1  UNL1        0.0986
@<TRIPOS>BOND
     1    17    18    1
     2    18    19   ar
     3    19    20   ar
     4    20     1    1
     5     1     2   ar
     6     2     3   ar
     7     3     4   ar
     8     4     5   ar
     9     5     6   ar
    10     6     7   ar
    11     7     8   ar
    12     8     9   ar
    13     9    10   ar
    14    10    23    1
    15    23    25    1
    16    25    26    2
    17    25    27    2
    18    25    28    1
    19    28    29    1
    20    29    30    1
    21    30    31    1
    22    10    11   ar
    23    11    12   ar
    24    12    13   ar
    25    13    14    2
    26    13    15   ar
    27    15    16   ar
    28    20    21   ar
    29    21    22   ar
    30    22    18   ar
    31    16     1   ar
    32    15     4   ar
    33    12     7   ar
    34    31    28    1
    35    23    24    1
@<TRIPOS>MOLECULE
*****
 31 35 0 0 0
SMALL
GASTEIGER

@<TRIPOS>ATOM
      1 C         139.7351  139.8881  167.0207 C.ar    1  UNL1        0.0223
      2 C         138.4591  139.1232  166.8296 C.ar    1  UNL1        0.0989
      3 N         138.1221  138.5507  165.4848 N.ar    1  UNL1       -0.2437
      4 C         139.0611  138.7431  164.3310 C.ar    1  UNL1        0.0844
      5 C         138.5372  138.0947  163.0840 C.ar    1  UNL1        0.0192
      6 C         139.1600  138.0510  161.7201 C.ar    1  UNL1        0.0016
      7 C         140.4605  138.6449  161.2664 C.ar    1  UNL1        0.0032
      8 C         140.7117  138.3690  159.8135 C.ar    1  UNL1        0.0014
      9 C         141.9618  138.8773  159.1588 C.ar    1  UNL1        0.0159
     10 C         142.9607  139.6617  159.9569 C.ar    1  UNL1        0.0659
     11 C         142.7096  139.9377  161.4097 C.ar    1  UNL1        0.0191
     12 C         141.4594  139.4293  162.0645 C.ar    1  UNL1        0.0403
     13 C         141.4045  139.8134  163.5135 C.ar    1  UNL1        0.1970
     14 O         142.5713  140.6079  164.0207 O.2     1  UNL1       -0.2865
     15 C         140.3372  139.5080  164.5221 C.ar    1  UNL1        0.0566
     16 C         140.6742  140.0805  165.8669 C.ar    1  UNL1        0.0063
     17 C         142.2575  142.4011  170.9199 C.3     1  UNL1        0.1538
     18 N         141.2317  141.6157  170.1578 N.ar    1  UNL1       -0.2473
     19 C         141.3070  141.2406  168.7074 C.ar    1  UNL1        0.0967
     20 C         140.0722  140.4606  168.3656 C.ar    1  UNL1        0.0411
     21 C         139.2337  140.3535  169.6047 C.ar    1  UNL1        0.1217
     22 N         139.9503  141.0674  170.7124 N.ar    1  UNL1       -0.1676
     23 N         144.2110  140.1701  159.3021 N.pl3   1  UNL1       -0.2052
     24 H         145.0914  139.9448  159.6806 H       1  UNL1        0.1748
     25 S         144.1195  141.0219  158.0709 S.O2    1  UNL1        0.1130
     26 O         144.7463  139.9233  157.2644 O.2     1  UNL1       -0.1379
     27 O         143.4928  142.1205  158.8773 O.2     1  UNL1       -0.1379
     28 N         144.0281  141.8737  156.8395 N.3     1  UNL1       -0.1427
     29 C         144.8370  142.0135  155.5841 C.3     1  UNL1        0.0986
     30 C         143.8989  143.0782  155.0982 C.3     1  UNL1        0.0384
     31 C         143.0899  142.9385  156.3536 C.3     1  UNL1        0.0986
@<TRIPOS>BOND
     1    17    18    1
     2    18    19   ar
     3    19    20   ar
     4    20     1    1
     5     1     2   ar
     6     2     3   ar
     7     3     4   ar
     8     4     5   ar
     9     5     6   ar
    10     6     7   ar
    11     7     8   ar
    12     8     9   ar
    13     9    10   ar
    14    10    23    1
    15    23    25    1
    16    25    26    2
    17    25    27    2
    18    25    28    1
    19    28    29    1
    20    29    30    1
    21    30    31    1
    22    10    11   ar
    23    11    12   ar
    24    12    13   ar
    25    13    14    2
    26    13    15   ar
    27    15    16   ar
    28    20    21   ar
    29    21    22   ar
    30    22    18   ar
    31    16     1   ar
    32    15     4   ar
    33    12     7   ar
    34    31    28    1
    35    23    24    1
