@<TRIPOS>MOLECULE
*****
 26 28 0 0 0
SMALL
GASTEIGER

@<TRIPOS>ATOM
      1 C         140.5873  141.1253  167.4276 C.3     1  UNL1        0.0847
      2 N         141.1123  140.9753  168.8248 N.3     1  UNL1       -0.2676
      3 C         140.4294  141.6759  169.9618 C.3     1  UNL1        0.0896
      4 C         140.9543  141.5260  171.3589 C.3     1  UNL1        0.0862
      5 N         142.1621  140.6754  171.6190 N.3     1  UNL1       -0.2951
      6 C         142.8450  139.9748  170.4820 C.3     1  UNL1        0.0862
      7 C         142.3201  140.1248  169.0849 C.3     1  UNL1        0.0896
      8 H         141.8770  139.9536  172.2809 H       1  UNL1        0.1233
      9 C         140.0064  139.9411  166.7136 C.ar    1  UNL1       -0.0074
     10 C         138.6401  139.4411  167.0787 C.ar    1  UNL1       -0.0030
     11 C         138.0592  138.2568  166.3646 C.ar    1  UNL1       -0.0003
     12 C         138.8445  137.5724  165.2853 C.ar    1  UNL1       -0.0000
     13 C         140.2108  138.0724  164.9201 C.ar    1  UNL1       -0.0003
     14 C         140.7917  139.2567  165.6342 C.ar    1  UNL1       -0.0030
     15 C         140.6433  142.4596  166.7446 C.3     1  UNL1        0.0522
     16 F         143.5342  142.3127  166.8390 F       1  UNL1       -0.2044
     17 C         143.1754  142.5605  166.1716 C.ar    1  UNL1        0.1391
     18 C         144.2758  142.8585  165.1968 C.ar    1  UNL1        0.0295
     19 C         143.9445  143.3535  163.8201 C.ar    1  UNL1        0.0054
     20 C         142.5129  143.5506  163.4183 C.ar    1  UNL1        0.0369
     21 C         141.4125  143.2527  164.3931 C.ar    1  UNL1        0.1425
     22 C         141.7438  142.7576  165.7698 C.ar    1  UNL1        0.0411
     23 O         139.9808  143.4498  163.9913 O.3     1  UNL1       -0.4239
     24 C         139.3585  144.8119  164.0770 C.3     1  UNL1        0.5086
     25 F         138.8239  145.3113  165.3865 F       1  UNL1       -0.1550
     26 F         139.2708  145.6747  162.8530 F       1  UNL1       -0.1550
@<TRIPOS>BOND
     1    16    17    1
     2    17    18   ar
     3    18    19   ar
     4    19    20   ar
     5    20    21   ar
     6    21    23    1
     7    23    24    1
     8    24    25    1
     9    24    26    1
    10    21    22   ar
    11    22    15    1
    12    15     1    1
    13     1     9    1
    14     9    10   ar
    15    10    11   ar
    16    11    12   ar
    17    12    13   ar
    18    13    14   ar
    19     1     2    1
    20     2     3    1
    21     3     4    1
    22     4     5    1
    23     5     6    1
    24     6     7    1
    25    22    17   ar
    26    14     9   ar
    27     7     2    1
    28     5     8    1
@<TRIPOS>MOLECULE
*****
 26 28 0 0 0
SMALL
GASTEIGER

@<TRIPOS>ATOM
      1 C         140.5732  141.1247  167.4300 C.3     1  UNL1        0.0847
      2 N         141.1028  140.9783  168.8258 N.3     1  UNL1       -0.2676
      3 C         140.4283  141.6881  169.9621 C.3     1  UNL1        0.0896
      4 C         140.9578  141.5418  171.3579 C.3     1  UNL1        0.0862
      5 N         142.1618  140.6857  171.6173 N.3     1  UNL1       -0.2951
      6 C         142.8363  139.9759  170.4810 C.3     1  UNL1        0.0862
      7 C         142.3068  140.1222  169.0852 C.3     1  UNL1        0.0896
      8 H         141.8752  139.9686  172.2837 H       1  UNL1        0.1233
      9 C         139.9922  139.9380  166.7200 C.ar    1  UNL1       -0.0074
     10 C         140.7734  139.2557  165.6365 C.ar    1  UNL1       -0.0030
     11 C         140.1923  138.0689  164.9265 C.ar    1  UNL1       -0.0003
     12 C         138.8299  137.5646  165.3001 C.ar    1  UNL1       -0.0000
     13 C         138.0486  138.2470  166.3836 C.ar    1  UNL1       -0.0003
     14 C         138.6297  139.4336  167.0935 C.ar    1  UNL1       -0.0030
     15 C         140.6248  142.4578  166.7443 C.3     1  UNL1        0.0522
     16 F         143.5163  142.3305  166.8497 F       1  UNL1       -0.2044
     17 C         143.1582  142.5731  166.1800 C.ar    1  UNL1        0.1391
     18 C         144.2602  142.8744  165.2079 C.ar    1  UNL1        0.0295
     19 C         143.9307  143.3615  163.8280 C.ar    1  UNL1        0.0054
     20 C         142.4992  143.5474  163.4202 C.ar    1  UNL1        0.0369
     21 C         141.3973  143.2461  164.3923 C.ar    1  UNL1        0.1425
     22 C         141.7268  142.7590  165.7722 C.ar    1  UNL1        0.0411
     23 O         139.9658  143.4320  163.9844 O.3     1  UNL1       -0.4239
     24 C         139.3327  144.7894  164.0666 C.3     1  UNL1        0.5086
     25 F         139.1997  145.6309  162.8321 F       1  UNL1       -0.1550
     26 F         138.8326  145.3052  165.3835 F       1  UNL1       -0.1550
@<TRIPOS>BOND
     1    16    17    1
     2    17    18   ar
     3    18    19   ar
     4    19    20   ar
     5    20    21   ar
     6    21    23    1
     7    23    24    1
     8    24    25    1
     9    24    26    1
    10    21    22   ar
    11    22    15    1
    12    15     1    1
    13     1     9    1
    14     9    10   ar
    15    10    11   ar
    16    11    12   ar
    17    12    13   ar
    18    13    14   ar
    19     1     2    1
    20     2     3    1
    21     3     4    1
    22     4     5    1
    23     5     6    1
    24     6     7    1
    25    22    17   ar
    26    14     9   ar
    27     7     2    1
    28     5     8    1
@<TRIPOS>MOLECULE
*****
 26 28 0 0 0
SMALL
GASTEIGER

@<TRIPOS>ATOM
      1 C         141.4158  140.8668  167.1890 C.3     1  UNL1        0.0847
      2 N         141.6471  140.8466  168.6710 N.3     1  UNL1       -0.2676
      3 C         140.8995  141.7960  169.5597 C.3     1  UNL1        0.0896
      4 C         141.1308  141.7759  171.0416 C.3     1  UNL1        0.0862
      5 N         142.1097  140.8065  171.6348 N.3     1  UNL1       -0.2951
      6 C         142.8573  139.8571  170.7461 C.3     1  UNL1        0.0862
      7 C         142.6260  139.8772  169.2642 C.3     1  UNL1        0.0896
      8 H         141.5915  140.2372  172.3040 H       1  UNL1        0.1233
      9 C         140.5314  139.8351  166.5539 C.ar    1  UNL1       -0.0074
     10 C         139.0941  139.7219  166.9680 C.ar    1  UNL1       -0.0030
     11 C         138.2097  138.6901  166.3328 C.ar    1  UNL1       -0.0003
     12 C         138.7625  137.7717  165.2836 C.ar    1  UNL1       -0.0000
     13 C         140.1998  137.8849  164.8696 C.ar    1  UNL1       -0.0003
     14 C         141.0842  138.9166  165.5047 C.ar    1  UNL1       -0.0030
     15 C         142.0690  141.9186  166.3422 C.3     1  UNL1        0.0522
     16 F         139.6094  143.3636  166.8426 F       1  UNL1       -0.2044
     17 C         139.9754  143.4436  166.1389 C.ar    1  UNL1        0.1391
     18 C         139.1328  144.3935  165.3403 C.ar    1  UNL1        0.0295
     19 C         139.5412  144.7682  163.9465 C.ar    1  UNL1        0.0054
     20 C         140.7921  144.1931  163.3512 C.ar    1  UNL1        0.0369
     21 C         141.6347  143.2433  164.1498 C.ar    1  UNL1        0.1425
     22 C         141.2263  142.8685  165.5436 C.ar    1  UNL1        0.0411
     23 O         142.8857  142.6681  163.5545 O.3     1  UNL1       -0.4239
     24 C         144.1813  143.4158  163.6651 C.3     1  UNL1        0.5086
     25 F         144.8992  143.4819  164.9805 F       1  UNL1       -0.1550
     26 F         144.7591  144.0974  162.4602 F       1  UNL1       -0.1550
@<TRIPOS>BOND
     1    16    17    1
     2    17    18   ar
     3    18    19   ar
     4    19    20   ar
     5    20    21   ar
     6    21    23    1
     7    23    24    1
     8    24    25    1
     9    24    26    1
    10    21    22   ar
    11    22    15    1
    12    15     1    1
    13     1     9    1
    14     9    10   ar
    15    10    11   ar
    16    11    12   ar
    17    12    13   ar
    18    13    14   ar
    19     1     2    1
    20     2     3    1
    21     3     4    1
    22     4     5    1
    23     5     6    1
    24     6     7    1
    25    22    17   ar
    26    14     9   ar
    27     7     2    1
    28     5     8    1
@<TRIPOS>MOLECULE
*****
 26 28 0 0 0
SMALL
GASTEIGER

@<TRIPOS>ATOM
      1 C         140.3906  142.5005  165.7757 C.3     1  UNL1        0.0847
      2 N         140.6031  143.5914  164.7682 N.3     1  UNL1       -0.2676
      3 C         141.9944  144.0350  164.4254 C.3     1  UNL1        0.0896
      4 C         142.2070  145.1258  163.4180 C.3     1  UNL1        0.0862
      5 N         141.0283  145.7731  162.7535 N.3     1  UNL1       -0.2951
      6 C         139.6370  145.3295  163.0964 C.3     1  UNL1        0.0862
      7 C         139.4244  144.2387  164.1037 C.3     1  UNL1        0.0896
      8 H         141.1428  145.6334  161.7496 H       1  UNL1        0.1233
      9 C         141.0308  142.5942  167.1289 C.ar    1  UNL1       -0.0074
     10 C         142.4489  142.1444  167.3205 C.ar    1  UNL1       -0.0030
     11 C         143.0891  142.2381  168.6739 C.ar    1  UNL1       -0.0003
     12 C         142.3112  142.7817  169.8355 C.ar    1  UNL1       -0.0000
     13 C         140.8931  143.2315  169.6439 C.ar    1  UNL1       -0.0003
     14 C         140.2529  143.1378  168.2907 C.ar    1  UNL1       -0.0030
     15 C         139.5379  141.3159  165.4298 C.3     1  UNL1        0.0522
     16 F         142.1308  140.5702  164.3769 F       1  UNL1       -0.2044
     17 C         141.5854  140.0051  164.5135 C.ar    1  UNL1        0.1391
     18 C         142.2276  138.7074  164.1220 C.ar    1  UNL1        0.0295
     19 C         141.4647  137.4227  164.2550 C.ar    1  UNL1        0.0054
     20 C         140.0596  137.4358  164.7796 C.ar    1  UNL1        0.0369
     21 C         139.4173  138.7335  165.1712 C.ar    1  UNL1        0.1425
     22 C         140.1802  140.0182  165.0382 C.ar    1  UNL1        0.0411
     23 O         138.0121  138.7467  165.6959 O.3     1  UNL1       -0.4239
     24 C         137.7623  138.6712  167.1730 C.3     1  UNL1        0.5086
     25 F         138.6126  139.4662  168.1190 F       1  UNL1       -0.1550
     26 F         136.6621  137.8008  167.7042 F       1  UNL1       -0.1550
@<TRIPOS>BOND
     1    16    17    1
     2    17    18   ar
     3    18    19   ar
     4    19    20   ar
     5    20    21   ar
     6    21    23    1
     7    23    24    1
     8    24    25    1
     9    24    26    1
    10    21    22   ar
    11    22    15    1
    12    15     1    1
    13     1     9    1
    14     9    10   ar
    15    10    11   ar
    16    11    12   ar
    17    12    13   ar
    18    13    14   ar
    19     1     2    1
    20     2     3    1
    21     3     4    1
    22     4     5    1
    23     5     6    1
    24     6     7    1
    25    22    17   ar
    26    14     9   ar
    27     7     2    1
    28     5     8    1
@<TRIPOS>MOLECULE
*****
 26 28 0 0 0
SMALL
GASTEIGER

@<TRIPOS>ATOM
      1 C         141.3067  140.9117  167.3008 C.3     1  UNL1        0.0847
      2 N         141.0634  141.3091  168.7266 N.3     1  UNL1       -0.2676
      3 C         141.5058  140.4090  169.8420 C.3     1  UNL1        0.0896
      4 C         141.2625  140.8064  171.2678 C.3     1  UNL1        0.0862
      5 N         140.5769  142.1038  171.5782 N.3     1  UNL1       -0.2951
      6 C         140.1345  143.0040  170.4628 C.3     1  UNL1        0.0862
      7 C         140.3778  142.6066  169.0370 C.3     1  UNL1        0.0896
      8 H         141.2193  142.6454  172.1564 H       1  UNL1        0.1233
      9 C         140.4435  139.8685  166.6552 C.ar    1  UNL1       -0.0074
     10 C         141.0002  139.0066  165.5611 C.ar    1  UNL1       -0.0030
     11 C         140.1369  137.9634  164.9155 C.ar    1  UNL1       -0.0003
     12 C         138.7171  137.7822  165.3641 C.ar    1  UNL1       -0.0000
     13 C         138.1605  138.6442  166.4583 C.ar    1  UNL1       -0.0003
     14 C         139.0237  139.6873  167.1038 C.ar    1  UNL1       -0.0030
     15 C         142.4132  141.5574  166.5206 C.3     1  UNL1        0.0522
     16 F         140.0003  142.9580  165.7434 F       1  UNL1       -0.2044
     17 C         140.7008  143.1831  165.4366 C.ar    1  UNL1        0.1391
     18 C         140.4006  144.3311  164.5191 C.ar    1  UNL1        0.0295
     19 C         141.5125  145.0015  163.7680 C.ar    1  UNL1        0.0054
     20 C         142.9246  144.5239  163.9344 C.ar    1  UNL1        0.0369
     21 C         143.2248  143.3759  164.8520 C.ar    1  UNL1        0.1425
     22 C         142.1129  142.7055  165.6030 C.ar    1  UNL1        0.0411
     23 O         144.6370  142.8983  165.0184 O.3     1  UNL1       -0.4239
     24 C         145.2773  142.0634  163.9493 C.3     1  UNL1        0.5086
     25 F         145.8556  140.7222  164.2908 F       1  UNL1       -0.1550
     26 F         145.3393  142.5698  162.5387 F       1  UNL1       -0.1550
@<TRIPOS>BOND
     1    16    17    1
     2    17    18   ar
     3    18    19   ar
     4    19    20   ar
     5    20    21   ar
     6    21    23    1
     7    23    24    1
     8    24    25    1
     9    24    26    1
    10    21    22   ar
    11    22    15    1
    12    15     1    1
    13     1     9    1
    14     9    10   ar
    15    10    11   ar
    16    11    12   ar
    17    12    13   ar
    18    13    14   ar
    19     1     2    1
    20     2     3    1
    21     3     4    1
    22     4     5    1
    23     5     6    1
    24     6     7    1
    25    22    17   ar
    26    14     9   ar
    27     7     2    1
    28     5     8    1
@<TRIPOS>MOLECULE
*****
 26 28 0 0 0
SMALL
GASTEIGER

@<TRIPOS>ATOM
      1 C         140.3515  140.2044  167.4081 C.3     1  UNL1        0.0847
      2 N         140.4386  140.8382  168.7649 N.3     1  UNL1       -0.2676
      3 C         140.2367  142.3168  168.9163 C.3     1  UNL1        0.0896
      4 C         140.3238  142.9506  170.2730 C.3     1  UNL1        0.0862
      5 N         140.6128  142.1059  171.4782 N.3     1  UNL1       -0.2951
      6 C         140.8148  140.6273  171.3268 C.3     1  UNL1        0.0862
      7 C         140.7277  139.9934  169.9702 C.3     1  UNL1        0.0896
      8 H         139.8307  142.2320  172.1207 H       1  UNL1        0.1233
      9 C         141.5552  140.1790  166.5135 C.ar    1  UNL1       -0.0074
     10 C         141.8913  141.3760  165.6743 C.ar    1  UNL1       -0.0030
     11 C         143.0951  141.3506  164.7796 C.ar    1  UNL1       -0.0003
     12 C         143.9626  140.1282  164.7242 C.ar    1  UNL1       -0.0000
     13 C         143.6265  138.9312  165.5633 C.ar    1  UNL1       -0.0003
     14 C         142.4228  138.9566  166.4580 C.ar    1  UNL1       -0.0030
     15 C         139.0606  139.5960  166.9461 C.3     1  UNL1        0.0522
     16 F         139.3691  137.2303  165.3040 F       1  UNL1       -0.2044
     17 C         139.1202  137.9101  164.9701 C.ar    1  UNL1        0.1391
     18 C         138.9130  137.6049  163.5162 C.ar    1  UNL1        0.0295
     19 C         138.4390  138.6804  162.5843 C.ar    1  UNL1        0.0054
     20 C         138.1721  140.0611  163.1062 C.ar    1  UNL1        0.0369
     21 C         138.3793  140.3662  164.5601 C.ar    1  UNL1        0.1425
     22 C         138.8534  139.2907  165.4921 C.ar    1  UNL1        0.0411
     23 O         138.1125  141.7470  165.0822 O.3     1  UNL1       -0.4239
     24 C         138.4210  142.9431  164.2312 C.3     1  UNL1        0.5086
     25 F         139.7766  143.5815  164.2980 F       1  UNL1       -0.1550
     26 F         137.3737  143.5008  163.3134 F       1  UNL1       -0.1550
@<TRIPOS>BOND
     1    16    17    1
     2    17    18   ar
     3    18    19   ar
     4    19    20   ar
     5    20    21   ar
     6    21    23    1
     7    23    24    1
     8    24    25    1
     9    24    26    1
    10    21    22   ar
    11    22    15    1
    12    15     1    1
    13     1     9    1
    14     9    10   ar
    15    10    11   ar
    16    11    12   ar
    17    12    13   ar
    18    13    14   ar
    19     1     2    1
    20     2     3    1
    21     3     4    1
    22     4     5    1
    23     5     6    1
    24     6     7    1
    25    22    17   ar
    26    14     9   ar
    27     7     2    1
    28     5     8    1
@<TRIPOS>MOLECULE
*****
 26 28 0 0 0
SMALL
GASTEIGER

@<TRIPOS>ATOM
      1 C         142.2185  141.0724  167.3214 C.3     1  UNL1        0.0847
      2 N         142.1540  141.4784  168.7641 N.3     1  UNL1       -0.2676
      3 C         141.2158  140.7753  169.6998 C.3     1  UNL1        0.0896
      4 C         141.1513  141.1812  171.1424 C.3     1  UNL1        0.0862
      5 N         142.0251  142.2901  171.6492 N.3     1  UNL1       -0.2951
      6 C         142.9633  142.9931  170.7135 C.3     1  UNL1        0.0862
      7 C         143.0277  142.5872  169.2709 C.3     1  UNL1        0.0896
      8 H         142.5955  141.8968  172.3977 H       1  UNL1        0.1233
      9 C         142.3717  142.1159  166.2548 C.ar    1  UNL1       -0.0074
     10 C         143.7391  142.5012  165.7735 C.ar    1  UNL1       -0.0030
     11 C         143.8923  143.5447  164.7068 C.ar    1  UNL1       -0.0003
     12 C         142.6781  144.2028  164.1216 C.ar    1  UNL1       -0.0000
     13 C         141.3106  143.8175  164.6029 C.ar    1  UNL1       -0.0003
     14 C         141.1574  142.7740  165.6695 C.ar    1  UNL1       -0.0030
     15 C         142.1297  139.6230  166.9455 C.3     1  UNL1        0.0522
     16 F         139.2368  139.6862  167.0678 F       1  UNL1       -0.2044
     17 C         139.5958  139.3546  166.4380 C.ar    1  UNL1        0.1391
     18 C         138.4947  138.8796  165.5370 C.ar    1  UNL1        0.0295
     19 C         138.8261  138.1979  164.2427 C.ar    1  UNL1        0.0054
     20 C         140.2587  137.9912  163.8492 C.ar    1  UNL1        0.0369
     21 C         141.3599  138.4663  164.7502 C.ar    1  UNL1        0.1425
     22 C         141.0284  139.1480  166.0445 C.ar    1  UNL1        0.0411
     23 O         142.7926  138.2596  164.3567 O.3     1  UNL1       -0.4239
     24 C         143.5862  139.3988  163.7889 C.3     1  UNL1        0.5086
     25 F         145.0845  139.3761  163.8561 F       1  UNL1       -0.1550
     26 F         142.8814  140.5607  163.1537 F       1  UNL1       -0.1550
@<TRIPOS>BOND
     1    16    17    1
     2    17    18   ar
     3    18    19   ar
     4    19    20   ar
     5    20    21   ar
     6    21    23    1
     7    23    24    1
     8    24    25    1
     9    24    26    1
    10    21    22   ar
    11    22    15    1
    12    15     1    1
    13     1     9    1
    14     9    10   ar
    15    10    11   ar
    16    11    12   ar
    17    12    13   ar
    18    13    14   ar
    19     1     2    1
    20     2     3    1
    21     3     4    1
    22     4     5    1
    23     5     6    1
    24     6     7    1
    25    22    17   ar
    26    14     9   ar
    27     7     2    1
    28     5     8    1
@<TRIPOS>MOLECULE
*****
 26 28 0 0 0
SMALL
GASTEIGER

@<TRIPOS>ATOM
      1 C         141.2702  142.0927  167.2306 C.3     1  UNL1        0.0847
      2 N         140.9925  141.7106  168.6544 N.3     1  UNL1       -0.2676
      3 C         141.0181  140.2673  169.0622 C.3     1  UNL1        0.0896
      4 C         140.7404  139.8851  170.4858 C.3     1  UNL1        0.0862
      5 N         140.4371  140.9462  171.5016 N.3     1  UNL1       -0.2951
      6 C         140.4115  142.3895  171.0938 C.3     1  UNL1        0.0862
      7 C         140.6891  142.7717  169.6702 C.3     1  UNL1        0.0896
      8 H         141.1397  140.8602  172.2361 H       1  UNL1        0.1233
      9 C         140.1381  142.2287  166.2561 C.ar    1  UNL1       -0.0074
     10 C         139.4029  141.0088  165.7856 C.ar    1  UNL1       -0.0030
     11 C         138.2707  141.1448  164.8110 C.ar    1  UNL1       -0.0003
     12 C         137.8738  142.5006  164.3070 C.ar    1  UNL1       -0.0000
     13 C         138.6090  143.7205  164.7775 C.ar    1  UNL1       -0.0003
     14 C         139.7411  143.5846  165.7520 C.ar    1  UNL1       -0.0030
     15 C         142.6800  142.3389  166.7815 C.3     1  UNL1        0.0522
     16 F         142.5136  139.4891  166.2926 F       1  UNL1       -0.2044
     17 C         142.9994  139.9362  165.8459 C.ar    1  UNL1        0.1391
     18 C         143.6532  138.9955  164.8776 C.ar    1  UNL1        0.0295
     19 C         144.6413  139.5167  163.8766 C.ar    1  UNL1        0.0054
     20 C         144.9757  140.9785  163.8439 C.ar    1  UNL1        0.0369
     21 C         144.3220  141.9192  164.8122 C.ar    1  UNL1        0.1425
     22 C         143.3338  141.3981  165.8132 C.ar    1  UNL1        0.0411
     23 O         144.6563  143.3812  164.7796 O.3     1  UNL1       -0.4239
     24 C         143.9253  144.2970  163.8432 C.3     1  UNL1        0.5086
     25 F         142.6210  144.9099  164.2594 F       1  UNL1       -0.1550
     26 F         144.4986  144.5999  162.4905 F       1  UNL1       -0.1550
@<TRIPOS>BOND
     1    16    17    1
     2    17    18   ar
     3    18    19   ar
     4    19    20   ar
     5    20    21   ar
     6    21    23    1
     7    23    24    1
     8    24    25    1
     9    24    26    1
    10    21    22   ar
    11    22    15    1
    12    15     1    1
    13     1     9    1
    14     9    10   ar
    15    10    11   ar
    16    11    12   ar
    17    12    13   ar
    18    13    14   ar
    19     1     2    1
    20     2     3    1
    21     3     4    1
    22     4     5    1
    23     5     6    1
    24     6     7    1
    25    22    17   ar
    26    14     9   ar
    27     7     2    1
    28     5     8    1
@<TRIPOS>MOLECULE
*****
 26 28 0 0 0
SMALL
GASTEIGER

@<TRIPOS>ATOM
      1 C         140.4740  141.2823  165.5811 C.3     1  UNL1        0.0847
      2 N         139.3364  141.1901  164.6077 N.3     1  UNL1       -0.2676
      3 C         139.1179  139.9280  163.8270 C.3     1  UNL1        0.0896
      4 C         137.9803  139.8357  162.8537 C.3     1  UNL1        0.0862
      5 N         137.0614  141.0054  162.6610 N.3     1  UNL1       -0.2951
      6 C         137.2799  142.2675  163.4417 C.3     1  UNL1        0.0862
      7 C         138.4175  142.3598  164.4150 C.3     1  UNL1        0.0896
      8 H         136.1205  140.6806  162.8838 H       1  UNL1        0.1233
      9 C         140.1972  141.3557  167.0535 C.ar    1  UNL1       -0.0074
     10 C         139.5492  140.1980  167.7534 C.ar    1  UNL1       -0.0030
     11 C         139.2724  140.2714  169.2259 C.ar    1  UNL1       -0.0003
     12 C         139.6435  141.5025  169.9983 C.ar    1  UNL1       -0.0000
     13 C         140.2914  142.6602  169.2984 C.ar    1  UNL1       -0.0003
     14 C         140.5683  142.5868  167.8260 C.ar    1  UNL1       -0.0030
     15 C         141.8884  141.3012  165.0820 C.3     1  UNL1        0.0522
     16 F         141.2294  144.1210  165.0282 F       1  UNL1       -0.2044
     17 C         141.8041  143.8430  164.5507 C.ar    1  UNL1        0.1391
     18 C         142.3130  145.0274  163.7837 C.ar    1  UNL1        0.0295
     19 C         143.4152  144.8544  162.7811 C.ar    1  UNL1        0.0054
     20 C         144.0085  143.4970  162.5455 C.ar    1  UNL1        0.0369
     21 C         143.4996  142.3127  163.3125 C.ar    1  UNL1        0.1425
     22 C         142.3974  142.4857  164.3150 C.ar    1  UNL1        0.0411
     23 O         144.0929  140.9552  163.0769 O.3     1  UNL1       -0.4239
     24 C         145.2998  140.5191  163.8536 C.3     1  UNL1        0.5086
     25 F         146.4249  141.4815  164.0940 F       1  UNL1       -0.1550
     26 F         145.3814  139.1206  164.3900 F       1  UNL1       -0.1550
@<TRIPOS>BOND
     1    16    17    1
     2    17    18   ar
     3    18    19   ar
     4    19    20   ar
     5    20    21   ar
     6    21    23    1
     7    23    24    1
     8    24    25    1
     9    24    26    1
    10    21    22   ar
    11    22    15    1
    12    15     1    1
    13     1     9    1
    14     9    10   ar
    15    10    11   ar
    16    11    12   ar
    17    12    13   ar
    18    13    14   ar
    19     1     2    1
    20     2     3    1
    21     3     4    1
    22     4     5    1
    23     5     6    1
    24     6     7    1
    25    22    17   ar
    26    14     9   ar
    27     7     2    1
    28     5     8    1
