@<TRIPOS>MOLECULE
*****
 34 37 0 0 0
SMALL
GASTEIGER

@<TRIPOS>ATOM
      1 C         140.8057  139.5837  162.2995 C.ar    1  UNL1        0.0505
      2 C         139.8963  138.4143  162.0637 C.ar    1  UNL1        0.0170
      3 C         139.1883  137.7699  163.2185 C.ar    1  UNL1        0.0307
      4 C         139.3898  138.2949  164.6091 C.ar    1  UNL1        0.1401
      5 F         138.6818  137.6504  165.7639 F       1  UNL1       -0.2044
      6 C         140.2991  139.4642  164.8449 C.ar    1  UNL1        0.0522
      7 C         141.0071  140.1086  163.6902 C.ar    1  UNL1        0.0167
      8 C         140.5005  139.9891  166.2356 C.3     1  UNL1        0.2163
      9 C         139.2285  140.6962  165.8720 C.3     1  UNL1        0.0601
     10 C         140.2601  140.7596  167.5000 C.3     1  UNL1        0.1614
     11 N         141.2218  140.6407  168.6450 N.ar    1  UNL1       -0.2929
     12 C         141.2463  141.2733  170.0049 C.ar    1  UNL1        0.1503
     13 C         142.4636  140.7749  170.7260 C.ar    1  UNL1        0.1285
     14 N         143.1913  139.8343  169.8118 N.ar    1  UNL1       -0.2180
     15 C         142.4238  139.7513  168.5257 C.ar    1  UNL1        0.2279
     16 C         142.6641  138.9809  167.2613 C.2     1  UNL1        0.3476
     17 N         143.8661  138.0915  167.1420 N.pl3   1  UNL1       -0.2439
     18 N         141.7025  139.0998  166.1163 N.2     1  UNL1       -0.0653
     19 H         144.4973  138.0135  167.8935 H       1  UNL1        0.2885
     20 H         144.0239  137.5858  166.3121 H       1  UNL1        0.2885
     21 C         140.2318  142.2354  170.5482 C.1     1  UNL1        0.1196
     22 N         139.2173  143.1975  171.0915 N.1     1  UNL1       -0.1893
     23 C         142.9481  139.8926  160.8626 C.2     1  UNL1        0.2688
     24 O         143.6747  138.9125  161.7352 O.2     1  UNL1       -0.2681
     25 N         141.5136  140.2282  161.1448 N.am    1  UNL1       -0.2791
     26 H         141.0367  140.8714  160.5720 H       1  UNL1        0.1552
     27 C         145.0719  141.8261  157.3984 C.ar    1  UNL1        0.2449
     28 C         144.5999  140.4064  157.2909 C.ar    1  UNL1        0.1565
     29 N         143.8920  139.7619  158.4457 N.ar    1  UNL1       -0.2328
     30 C         143.6561  140.5371  159.7078 C.ar    1  UNL1        0.1541
     31 C         144.1280  141.9569  159.8155 C.ar    1  UNL1        0.1258
     32 N         144.8359  142.6013  158.6607 N.ar    1  UNL1       -0.2071
     33 C         147.2774  142.5567  156.2356 C.3     1  UNL1        0.2543
     34 O         145.7798  142.4706  156.2436 O.3     1  UNL1       -0.4551
@<TRIPOS>BOND
     1    33    34    1
     2    34    27    1
     3    27    28   ar
     4    28    29   ar
     5    29    30   ar
     6    30    23    1
     7    23    24    2
     8    23    25   am
     9    25     1    1
    10     1     2   ar
    11     2     3   ar
    12     3     4   ar
    13     4     5    1
    14     4     6   ar
    15     6     8    1
    16     8     9    1
    17     8    10    1
    18    10    11    1
    19    11    12   ar
    20    12    21    1
    21    21    22    3
    22    12    13   ar
    23    13    14   ar
    24    14    15   ar
    25    15    16    1
    26    16    17    1
    27    16    18    2
    28     6     7   ar
    29    30    31   ar
    30    31    32   ar
    31    32    27   ar
    32     7     1   ar
    33    18     8    1
    34    15    11   ar
    35    25    26    1
    36    17    19    1
    37    17    20    1
@<TRIPOS>MOLECULE
*****
 34 37 0 0 0
SMALL
GASTEIGER

@<TRIPOS>ATOM
      1 C         139.7605  141.5252  161.8560 C.ar    1  UNL1        0.0505
      2 C         138.5710  142.3688  161.5045 C.ar    1  UNL1        0.0170
      3 C         137.8360  143.1138  162.5791 C.ar    1  UNL1        0.0307
      4 C         138.2905  143.0153  164.0052 C.ar    1  UNL1        0.1401
      5 F         137.5554  143.7603  165.0797 F       1  UNL1       -0.2044
      6 C         139.4799  142.1718  164.3567 C.ar    1  UNL1        0.0522
      7 C         140.2149  141.4267  163.2822 C.ar    1  UNL1        0.0167
      8 C         139.9343  142.0733  165.7829 C.3     1  UNL1        0.2163
      9 C         140.6603  143.3172  165.3635 C.3     1  UNL1        0.0601
     10 C         140.6409  142.4069  167.0633 C.3     1  UNL1        0.1614
     11 N         140.4637  141.5307  168.2679 N.ar    1  UNL1       -0.2929
     12 C         141.0274  141.6066  169.6558 C.ar    1  UNL1        0.1503
     13 C         140.4921  140.4439  170.4377 C.ar    1  UNL1        0.1285
     14 N         139.5975  139.6493  169.5331 N.ar    1  UNL1       -0.2180
     15 C         139.5799  140.3211  168.1920 C.ar    1  UNL1        0.2279
     16 C         138.8734  139.9876  166.9115 C.2     1  UNL1        0.3476
     17 N         137.9896  138.7779  166.8356 N.pl3   1  UNL1       -0.2439
     18 N         139.0506  140.8637  165.7070 N.2     1  UNL1       -0.0653
     19 H         137.8733  138.2029  167.6262 H       1  UNL1        0.2885
     20 H         137.5259  138.5590  165.9952 H       1  UNL1        0.2885
     21 C         141.9623  142.6603  170.1714 C.1     1  UNL1        0.1196
     22 N         142.8972  143.7139  170.6869 N.1     1  UNL1       -0.1893
     23 C         140.0276  139.4195  160.3578 C.2     1  UNL1        0.2688
     24 O         138.8245  138.8039  161.0085 O.2     1  UNL1       -0.2681
     25 N         140.4956  140.7802  160.7815 N.am    1  UNL1       -0.2791
     26 H         141.2852  141.1842  160.3544 H       1  UNL1        0.1552
     27 C         142.2329  137.1844  157.1343 C.ar    1  UNL1        0.2449
     28 C         140.7800  137.5137  156.9590 C.ar    1  UNL1        0.1565
     29 N         140.0449  138.2587  158.0335 N.ar    1  UNL1       -0.2328
     30 C         140.7627  138.6745  159.2832 C.ar    1  UNL1        0.1541
     31 C         142.2156  138.3452  159.4586 C.ar    1  UNL1        0.1258
     32 N         142.9506  137.6002  158.3841 N.ar    1  UNL1       -0.2071
     33 C         143.6803  135.1604  156.3869 C.3     1  UNL1        0.2543
     34 O         142.9680  136.4394  156.0597 O.3     1  UNL1       -0.4551
@<TRIPOS>BOND
     1    33    34    1
     2    34    27    1
     3    27    28   ar
     4    28    29   ar
     5    29    30   ar
     6    30    23    1
     7    23    24    2
     8    23    25   am
     9    25     1    1
    10     1     2   ar
    11     2     3   ar
    12     3     4   ar
    13     4     5    1
    14     4     6   ar
    15     6     8    1
    16     8     9    1
    17     8    10    1
    18    10    11    1
    19    11    12   ar
    20    12    21    1
    21    21    22    3
    22    12    13   ar
    23    13    14   ar
    24    14    15   ar
    25    15    16    1
    26    16    17    1
    27    16    18    2
    28     6     7   ar
    29    30    31   ar
    30    31    32   ar
    31    32    27   ar
    32     7     1   ar
    33    18     8    1
    34    15    11   ar
    35    25    26    1
    36    17    19    1
    37    17    20    1
@<TRIPOS>MOLECULE
*****
 34 37 0 0 0
SMALL
GASTEIGER

@<TRIPOS>ATOM
      1 C         142.5112  141.3134  161.7241 C.ar    1  UNL1        0.0505
      2 C         143.5186  140.2507  161.3989 C.ar    1  UNL1        0.0170
      3 C         144.0940  139.4022  162.4939 C.ar    1  UNL1        0.0307
      4 C         143.6618  139.6165  163.9143 C.ar    1  UNL1        0.1401
      5 F         144.2372  138.7681  165.0094 F       1  UNL1       -0.2044
      6 C         142.6544  140.6791  164.2395 C.ar    1  UNL1        0.0522
      7 C         142.0791  141.5276  163.1446 C.ar    1  UNL1        0.0167
      8 C         142.2223  140.8933  165.6600 C.3     1  UNL1        0.2163
      9 C         143.4332  141.7779  165.6198 C.3     1  UNL1        0.0601
     10 C         142.2108  141.4147  167.0664 C.3     1  UNL1        0.1614
     11 N         141.1385  140.9772  168.0197 N.ar    1  UNL1       -0.2929
     12 C         140.8712  141.3196  169.4554 C.ar    1  UNL1        0.1503
     13 C         139.6452  140.5723  169.8896 C.ar    1  UNL1        0.1285
     14 N         139.1549  139.7681  168.7222 N.ar    1  UNL1       -0.2180
     15 C         140.0778  140.0183  167.5665 C.ar    1  UNL1        0.2279
     16 C         140.0893  139.4970  166.1601 C.2     1  UNL1        0.3476
     17 N         139.0286  138.5381  165.7070 N.pl3   1  UNL1       -0.2439
     18 N         141.1616  139.9345  165.2069 N.2     1  UNL1       -0.0653
     19 H         138.3248  138.2509  166.3326 H       1  UNL1        0.2885
     20 H         139.0362  138.1959  164.7839 H       1  UNL1        0.2885
     21 C         141.6867  142.2465  170.3074 C.1     1  UNL1        0.1196
     22 N         142.5022  143.1735  171.1593 N.1     1  UNL1       -0.1893
     23 C         142.3240  143.6064  160.5170 C.2     1  UNL1        0.2688
     24 O         143.2876  144.2025  161.4999 O.2     1  UNL1       -0.2681
     25 N         141.9358  142.1618  160.6292 N.am    1  UNL1       -0.2791
     26 H         141.3034  141.7706  159.9841 H       1  UNL1        0.1552
     27 C         140.5978  146.1516  157.2319 C.ar    1  UNL1        0.2449
     28 C         142.0013  145.6342  157.1209 C.ar    1  UNL1        0.1565
     29 N         142.5767  144.7857  158.2159 N.ar    1  UNL1       -0.2328
     30 C         141.7486  144.4548  159.4219 C.ar    1  UNL1        0.1541
     31 C         140.3450  144.9722  159.5331 C.ar    1  UNL1        0.1258
     32 N         139.7697  145.8206  158.4381 N.ar    1  UNL1       -0.2071
     33 C         138.8170  146.5294  155.3783 C.3     1  UNL1        0.2543
     34 O         140.0224  147.0001  156.1369 O.3     1  UNL1       -0.4551
@<TRIPOS>BOND
     1    33    34    1
     2    34    27    1
     3    27    28   ar
     4    28    29   ar
     5    29    30   ar
     6    30    23    1
     7    23    24    2
     8    23    25   am
     9    25     1    1
    10     1     2   ar
    11     2     3   ar
    12     3     4   ar
    13     4     5    1
    14     4     6   ar
    15     6     8    1
    16     8     9    1
    17     8    10    1
    18    10    11    1
    19    11    12   ar
    20    12    21    1
    21    21    22    3
    22    12    13   ar
    23    13    14   ar
    24    14    15   ar
    25    15    16    1
    26    16    17    1
    27    16    18    2
    28     6     7   ar
    29    30    31   ar
    30    31    32   ar
    31    32    27   ar
    32     7     1   ar
    33    18     8    1
    34    15    11   ar
    35    25    26    1
    36    17    19    1
    37    17    20    1
@<TRIPOS>MOLECULE
*****
 34 37 0 0 0
SMALL
GASTEIGER

@<TRIPOS>ATOM
      1 C         139.9851  140.1853  162.1341 C.ar    1  UNL1        0.0505
      2 C         139.4839  138.7940  161.8829 C.ar    1  UNL1        0.0170
      3 C         139.2486  137.8621  163.0345 C.ar    1  UNL1        0.0307
      4 C         139.5145  138.3216  164.4375 C.ar    1  UNL1        0.1401
      5 F         139.2791  137.3897  165.5891 F       1  UNL1       -0.2044
      6 C         140.0156  139.7128  164.6887 C.ar    1  UNL1        0.0522
      7 C         140.2509  140.6447  163.5372 C.ar    1  UNL1        0.0167
      8 C         140.2814  140.1722  166.0917 C.3     1  UNL1        0.2163
      9 C         138.9907  140.8879  165.8235 C.3     1  UNL1        0.0601
     10 C         140.0989  140.8802  167.4016 C.3     1  UNL1        0.1614
     11 N         141.1148  140.7129  168.4924 N.ar    1  UNL1       -0.2929
     12 C         141.2021  141.2803  169.8782 C.ar    1  UNL1        0.1503
     13 C         142.4545  140.7557  170.5157 C.ar    1  UNL1        0.1285
     14 N         143.1412  139.8642  169.5239 N.ar    1  UNL1       -0.2180
     15 C         142.3132  139.8378  168.2734 C.ar    1  UNL1        0.2279
     16 C         142.4957  139.1298  166.9636 C.2     1  UNL1        0.3476
     17 N         143.6941  138.2547  166.7446 N.pl3   1  UNL1       -0.2439
     18 N         141.4798  139.2971  165.8728 N.2     1  UNL1       -0.0653
     19 H         144.3609  138.1449  167.4606 H       1  UNL1        0.2885
     20 H         143.8138  137.7901  165.8850 H       1  UNL1        0.2885
     21 C         140.2111  142.2091  170.5147 C.1     1  UNL1        0.1196
     22 N         139.2200  143.1379  171.1513 N.1     1  UNL1       -0.1893
     23 C         139.2117  142.1790  160.6587 C.2     1  UNL1        0.2688
     24 O         137.9675  142.3089  161.4864 O.2     1  UNL1       -0.2681
     25 N         140.2204  141.1172  160.9826 N.am    1  UNL1       -0.2791
     26 H         141.0370  141.0319  160.4393 H       1  UNL1        0.1552
     27 C         139.9178  144.9747  157.2039 C.ar    1  UNL1        0.2449
     28 C         139.2221  143.6650  156.9788 C.ar    1  UNL1        0.1565
     29 N         138.9867  142.7331  158.1304 N.ar    1  UNL1       -0.2328
     30 C         139.4470  143.1109  159.5071 C.ar    1  UNL1        0.1541
     31 C         140.1428  144.4206  159.7323 C.ar    1  UNL1        0.1258
     32 N         140.3781  145.3524  158.5807 N.ar    1  UNL1       -0.2071
     33 C         139.3033  147.1324  155.8936 C.3     1  UNL1        0.2543
     34 O         140.1532  145.9066  156.0523 O.3     1  UNL1       -0.4551
@<TRIPOS>BOND
     1    33    34    1
     2    34    27    1
     3    27    28   ar
     4    28    29   ar
     5    29    30   ar
     6    30    23    1
     7    23    24    2
     8    23    25   am
     9    25     1    1
    10     1     2   ar
    11     2     3   ar
    12     3     4   ar
    13     4     5    1
    14     4     6   ar
    15     6     8    1
    16     8     9    1
    17     8    10    1
    18    10    11    1
    19    11    12   ar
    20    12    21    1
    21    21    22    3
    22    12    13   ar
    23    13    14   ar
    24    14    15   ar
    25    15    16    1
    26    16    17    1
    27    16    18    2
    28     6     7   ar
    29    30    31   ar
    30    31    32   ar
    31    32    27   ar
    32     7     1   ar
    33    18     8    1
    34    15    11   ar
    35    25    26    1
    36    17    19    1
    37    17    20    1
@<TRIPOS>MOLECULE
*****
 34 37 0 0 0
SMALL
GASTEIGER

@<TRIPOS>ATOM
      1 C         140.5620  139.5717  161.9603 C.ar    1  UNL1        0.0505
      2 C         140.9949  138.1503  161.7548 C.ar    1  UNL1        0.0170
      3 C         141.4984  137.3443  162.9154 C.ar    1  UNL1        0.0307
      4 C         141.5690  137.9598  164.2815 C.ar    1  UNL1        0.1401
      5 F         142.0726  137.1538  165.4421 F       1  UNL1       -0.2044
      6 C         141.1362  139.3812  164.4870 C.ar    1  UNL1        0.0522
      7 C         140.6327  140.1871  163.3265 C.ar    1  UNL1        0.0167
      8 C         141.2069  139.9966  165.8532 C.3     1  UNL1        0.2163
      9 C         142.5057  140.4824  165.2811 C.3     1  UNL1        0.0601
     10 C         141.7287  140.7807  167.0206 C.3     1  UNL1        0.1614
     11 N         140.9272  140.8653  168.2857 N.ar    1  UNL1       -0.2929
     12 C         141.1825  141.5585  169.5912 C.ar    1  UNL1        0.1503
     13 C         140.0170  141.2874  170.4956 C.ar    1  UNL1        0.1285
     14 N         139.0413  140.4267  169.7491 N.ar    1  UNL1       -0.2180
     15 C         139.6039  140.1658  168.3833 C.ar    1  UNL1        0.2279
     16 C         139.0821  139.3817  167.2158 C.2     1  UNL1        0.3476
     17 N         137.7588  138.6822  167.3134 N.pl3   1  UNL1       -0.2439
     18 N         139.8837  139.2971  165.9508 N.2     1  UNL1       -0.0653
     19 H         137.2327  138.7377  168.1437 H       1  UNL1        0.2885
     20 H         137.4163  138.1676  166.5472 H       1  UNL1        0.2885
     21 C         142.3912  142.3788  169.9323 C.1     1  UNL1        0.1196
     22 N         143.5998  143.1990  170.2734 N.1     1  UNL1       -0.1893
     23 C         138.6844  140.1274  160.2527 C.2     1  UNL1        0.2688
     24 O         137.8139  139.0711  160.8660 O.2     1  UNL1       -0.2681
     25 N         140.0585  140.3777  160.7999 N.am    1  UNL1       -0.2791
     26 H         140.6298  141.0711  160.3973 H       1  UNL1        0.1552
     27 C         137.1740  142.5456  156.7712 C.ar    1  UNL1        0.2449
     28 C         136.8622  141.0809  156.8586 C.ar    1  UNL1        0.1565
     29 N         137.3657  140.2749  158.0191 N.ar    1  UNL1       -0.2328
     30 C         138.1809  140.9335  159.0921 C.ar    1  UNL1        0.1541
     31 C         138.4927  142.3981  159.0048 C.ar    1  UNL1        0.1258
     32 N         137.9892  143.2041  157.8444 N.ar    1  UNL1       -0.2071
     33 C         136.2203  142.6614  154.3572 C.3     1  UNL1        0.2543
     34 O         136.6705  143.3516  155.6106 O.3     1  UNL1       -0.4551
@<TRIPOS>BOND
     1    33    34    1
     2    34    27    1
     3    27    28   ar
     4    28    29   ar
     5    29    30   ar
     6    30    23    1
     7    23    24    2
     8    23    25   am
     9    25     1    1
    10     1     2   ar
    11     2     3   ar
    12     3     4   ar
    13     4     5    1
    14     4     6   ar
    15     6     8    1
    16     8     9    1
    17     8    10    1
    18    10    11    1
    19    11    12   ar
    20    12    21    1
    21    21    22    3
    22    12    13   ar
    23    13    14   ar
    24    14    15   ar
    25    15    16    1
    26    16    17    1
    27    16    18    2
    28     6     7   ar
    29    30    31   ar
    30    31    32   ar
    31    32    27   ar
    32     7     1   ar
    33    18     8    1
    34    15    11   ar
    35    25    26    1
    36    17    19    1
    37    17    20    1
@<TRIPOS>MOLECULE
*****
 34 37 0 0 0
SMALL
GASTEIGER

@<TRIPOS>ATOM
      1 C         143.0087  140.9529  161.6854 C.ar    1  UNL1        0.0505
      2 C         144.3454  141.5656  161.3892 C.ar    1  UNL1        0.0170
      3 C         145.1588  142.1636  162.4986 C.ar    1  UNL1        0.0307
      4 C         144.6355  142.1487  163.9043 C.ar    1  UNL1        0.1401
      5 F         145.4489  142.7467  165.0138 F       1  UNL1       -0.2044
      6 C         143.2988  141.5360  164.2005 C.ar    1  UNL1        0.0522
      7 C         142.4854  140.9381  163.0912 C.ar    1  UNL1        0.0167
      8 C         142.7755  141.5212  165.6063 C.3     1  UNL1        0.2163
      9 C         142.3153  142.8811  165.1713 C.3     1  UNL1        0.0601
     10 C         142.0924  141.9788  166.8609 C.3     1  UNL1        0.1614
     11 N         142.0513  141.0817  168.0623 N.ar    1  UNL1       -0.2929
     12 C         141.4552  141.2589  169.4273 C.ar    1  UNL1        0.1503
     13 C         141.7288  140.0138  170.2178 C.ar    1  UNL1        0.1285
     14 N         142.4939  139.0670  169.3413 N.ar    1  UNL1       -0.2180
     15 C         142.6932  139.7270  168.0091 C.ar    1  UNL1        0.2279
     16 C         143.3764  139.2695  166.7545 C.2     1  UNL1        0.3476
     17 N         144.0183  137.9149  166.7013 N.pl3   1  UNL1       -0.2439
     18 N         143.4175  140.1667  165.5531 N.2     1  UNL1       -0.0653
     19 H         143.9914  137.3261  167.4898 H       1  UNL1        0.2885
     20 H         144.4667  137.6146  165.8779 H       1  UNL1        0.2885
     21 C         140.7154  142.4688  169.9161 C.1     1  UNL1        0.1196
     22 N         139.9756  143.6787  170.4048 N.1     1  UNL1       -0.1893
     23 C         142.6592  139.0998  159.8982 C.2     1  UNL1        0.2688
     24 O         143.9366  138.4426  160.3297 O.2     1  UNL1       -0.2681
     25 N         142.1953  140.3549  160.5760 N.am    1  UNL1       -0.2791
     26 H         141.3568  140.7863  160.2928 H       1  UNL1        0.1552
     27 C         140.2187  137.3061  156.5701 C.ar    1  UNL1        0.2449
     28 C         141.7146  137.1991  156.5448 C.ar    1  UNL1        0.1565
     29 N         142.5281  137.7970  157.6543 N.ar    1  UNL1       -0.2328
     30 C         141.8457  138.5019  158.7888 C.ar    1  UNL1        0.1541
     31 C         140.3497  138.6089  158.8141 C.ar    1  UNL1        0.1258
     32 N         139.5363  138.0110  157.7047 N.ar    1  UNL1       -0.2071
     33 C         140.0582  136.3584  154.1563 C.3     1  UNL1        0.2543
     34 O         139.4052  136.7081  155.4607 O.3     1  UNL1       -0.4551
@<TRIPOS>BOND
     1    33    34    1
     2    34    27    1
     3    27    28   ar
     4    28    29   ar
     5    29    30   ar
     6    30    23    1
     7    23    24    2
     8    23    25   am
     9    25     1    1
    10     1     2   ar
    11     2     3   ar
    12     3     4   ar
    13     4     5    1
    14     4     6   ar
    15     6     8    1
    16     8     9    1
    17     8    10    1
    18    10    11    1
    19    11    12   ar
    20    12    21    1
    21    21    22    3
    22    12    13   ar
    23    13    14   ar
    24    14    15   ar
    25    15    16    1
    26    16    17    1
    27    16    18    2
    28     6     7   ar
    29    30    31   ar
    30    31    32   ar
    31    32    27   ar
    32     7     1   ar
    33    18     8    1
    34    15    11   ar
    35    25    26    1
    36    17    19    1
    37    17    20    1
@<TRIPOS>MOLECULE
*****
 34 37 0 0 0
SMALL
GASTEIGER

@<TRIPOS>ATOM
      1 C         142.1246  140.9343  162.5327 C.ar    1  UNL1        0.0505
      2 C         143.2196  139.9337  162.3095 C.ar    1  UNL1        0.0170
      3 C         143.6909  139.0721  163.4434 C.ar    1  UNL1        0.0307
      4 C         143.0672  139.2112  164.8004 C.ar    1  UNL1        0.1401
      5 F         143.5385  138.3496  165.9343 F       1  UNL1       -0.2044
      6 C         141.9722  140.2118  165.0236 C.ar    1  UNL1        0.0522
      7 C         141.5009  141.0733  163.8899 C.ar    1  UNL1        0.0167
      8 C         141.3486  140.3508  166.3808 C.3     1  UNL1        0.2163
      9 C         140.3677  139.4155  165.7379 C.3     1  UNL1        0.0601
     10 C         140.3842  140.1649  167.5147 C.3     1  UNL1        0.1614
     11 N         140.6173  140.8661  168.8200 N.ar    1  UNL1       -0.2929
     12 C         139.8458  140.8749  170.1063 C.ar    1  UNL1        0.1503
     13 C         140.5664  141.7674  171.0729 C.ar    1  UNL1        0.1285
     14 N         141.7832  142.3101  170.3839 N.ar    1  UNL1       -0.2180
     15 C         141.8147  141.7531  168.9915 C.ar    1  UNL1        0.2279
     16 C         142.7790  141.9389  167.8577 C.2     1  UNL1        0.3476
     17 N         143.9764  142.8259  168.0292 N.pl3   1  UNL1       -0.2439
     18 N         142.5459  141.2377  166.5524 N.2     1  UNL1       -0.0653
     19 H         144.1294  143.2861  168.8860 H       1  UNL1        0.2885
     20 H         144.6093  142.9479  167.2851 H       1  UNL1        0.2885
     21 C         138.5765  140.1232  170.3784 C.1     1  UNL1        0.1196
     22 N         137.3073  139.3716  170.6504 N.1     1  UNL1       -0.1893
     23 C         142.2427  143.1606  161.1986 C.2     1  UNL1        0.2688
     24 O         143.3035  143.6638  162.1321 O.2     1  UNL1       -0.2681
     25 N         141.6533  141.7959  161.3989 N.am    1  UNL1       -0.2791
     26 H         140.9570  141.4657  160.7862 H       1  UNL1        0.1552
     27 C         140.8286  145.7453  157.7972 C.ar    1  UNL1        0.2449
     28 C         142.1646  145.0678  157.7192 C.ar    1  UNL1        0.1565
     29 N         142.6359  144.2062  158.8530 N.ar    1  UNL1       -0.2328
     30 C         141.7713  144.0222  160.0648 C.ar    1  UNL1        0.1541
     31 C         140.4353  144.6997  160.1429 C.ar    1  UNL1        0.1258
     32 N         139.9640  145.5612  159.0091 N.ar    1  UNL1       -0.2071
     33 C         139.2258  146.1472  155.7923 C.3     1  UNL1        0.2543
     34 O         140.3572  146.6068  156.6634 O.3     1  UNL1       -0.4551
@<TRIPOS>BOND
     1    33    34    1
     2    34    27    1
     3    27    28   ar
     4    28    29   ar
     5    29    30   ar
     6    30    23    1
     7    23    24    2
     8    23    25   am
     9    25     1    1
    10     1     2   ar
    11     2     3   ar
    12     3     4   ar
    13     4     5    1
    14     4     6   ar
    15     6     8    1
    16     8     9    1
    17     8    10    1
    18    10    11    1
    19    11    12   ar
    20    12    21    1
    21    21    22    3
    22    12    13   ar
    23    13    14   ar
    24    14    15   ar
    25    15    16    1
    26    16    17    1
    27    16    18    2
    28     6     7   ar
    29    30    31   ar
    30    31    32   ar
    31    32    27   ar
    32     7     1   ar
    33    18     8    1
    34    15    11   ar
    35    25    26    1
    36    17    19    1
    37    17    20    1
@<TRIPOS>MOLECULE
*****
 34 37 0 0 0
SMALL
GASTEIGER

@<TRIPOS>ATOM
      1 C         140.1282  142.5347  161.6242 C.ar    1  UNL1        0.0505
      2 C         138.7423  143.0324  161.3386 C.ar    1  UNL1        0.0170
      3 C         137.7976  143.3118  162.4698 C.ar    1  UNL1        0.0307
      4 C         138.2390  143.0934  163.8867 C.ar    1  UNL1        0.1401
      5 F         137.2944  143.3728  165.0180 F       1  UNL1       -0.2044
      6 C         139.6248  142.5957  164.1723 C.ar    1  UNL1        0.0522
      7 C         140.5694  142.3163  163.0412 C.ar    1  UNL1        0.0167
      8 C         140.0660  142.3773  165.5893 C.3     1  UNL1        0.2163
      9 C         140.7878  143.6568  165.2860 C.3     1  UNL1        0.0601
     10 C         140.7580  142.6034  166.9009 C.3     1  UNL1        0.1614
     11 N         140.5749  141.6257  168.0237 N.ar    1  UNL1       -0.2929
     12 C         141.1247  141.5850  169.4187 C.ar    1  UNL1        0.1503
     13 C         140.5895  140.3561  170.0921 C.ar    1  UNL1        0.1285
     14 N         139.7089  139.6373  169.1133 N.ar    1  UNL1       -0.2180
     15 C         139.6999  140.4220  167.8349 C.ar    1  UNL1        0.2279
     16 C         139.0081  140.1960  166.5233 C.2     1  UNL1        0.3476
     17 N         138.1331  138.9923  166.3345 N.pl3   1  UNL1       -0.2439
     18 N         139.1911  141.1737  165.4006 N.2     1  UNL1       -0.0653
     19 H         138.0129  138.3506  167.0715 H       1  UNL1        0.2885
     20 H         137.6790  138.8440  165.4737 H       1  UNL1        0.2885
     21 C         142.0476  142.5956  170.0325 C.1     1  UNL1        0.1196
     22 N         142.9705  143.6063  170.6464 N.1     1  UNL1       -0.1893
     23 C         141.9186  143.3597  159.9320 C.2     1  UNL1        0.2688
     24 O         141.8197  144.7436  160.5020 O.2     1  UNL1       -0.2681
     25 N         141.0728  142.2553  160.4931 N.am    1  UNL1       -0.2791
     26 H         141.1377  141.3470  160.1189 H       1  UNL1        0.1552
     27 C         144.7524  142.5214  156.5384 C.ar    1  UNL1        0.2449
     28 C         145.2219  142.3912  157.9571 C.ar    1  UNL1        0.1565
     29 N         144.2772  142.6706  159.0883 N.ar    1  UNL1       -0.2328
     30 C         142.8632  143.0803  158.8007 C.ar    1  UNL1        0.1541
     31 C         142.3937  143.2105  157.3821 C.ar    1  UNL1        0.1258
     32 N         143.3384  142.9310  156.2509 N.ar    1  UNL1       -0.2071
     33 C         146.6135  141.0561  155.4709 C.3     1  UNL1        0.2543
     34 O         145.6971  142.2419  155.4072 O.3     1  UNL1       -0.4551
@<TRIPOS>BOND
     1    33    34    1
     2    34    27    1
     3    27    28   ar
     4    28    29   ar
     5    29    30   ar
     6    30    23    1
     7    23    24    2
     8    23    25   am
     9    25     1    1
    10     1     2   ar
    11     2     3   ar
    12     3     4   ar
    13     4     5    1
    14     4     6   ar
    15     6     8    1
    16     8     9    1
    17     8    10    1
    18    10    11    1
    19    11    12   ar
    20    12    21    1
    21    21    22    3
    22    12    13   ar
    23    13    14   ar
    24    14    15   ar
    25    15    16    1
    26    16    17    1
    27    16    18    2
    28     6     7   ar
    29    30    31   ar
    30    31    32   ar
    31    32    27   ar
    32     7     1   ar
    33    18     8    1
    34    15    11   ar
    35    25    26    1
    36    17    19    1
    37    17    20    1
@<TRIPOS>MOLECULE
*****
 34 37 0 0 0
SMALL
GASTEIGER

@<TRIPOS>ATOM
      1 C         141.9994  141.6476  161.8998 C.ar    1  UNL1        0.0505
      2 C         143.3418  142.2226  161.5573 C.ar    1  UNL1        0.0170
      3 C         144.2853  142.6280  162.6508 C.ar    1  UNL1        0.0307
      4 C         143.8861  142.4585  164.0867 C.ar    1  UNL1        0.1401
      5 F         144.8296  142.8639  165.1802 F       1  UNL1       -0.2044
      6 C         142.5438  141.8835  164.4292 C.ar    1  UNL1        0.0522
      7 C         141.6004  141.4781  163.3358 C.ar    1  UNL1        0.0167
      8 C         142.1448  141.7140  165.8653 C.3     1  UNL1        0.2163
      9 C         141.4729  143.0202  165.5607 C.3     1  UNL1        0.0601
     10 C         141.5124  141.9982  167.1955 C.3     1  UNL1        0.1614
     11 N         141.6904  141.0351  168.3315 N.ar    1  UNL1       -0.2929
     12 C         141.1906  141.0477  169.7457 C.ar    1  UNL1        0.1503
     13 C         141.6920  139.8082  170.4256 C.ar    1  UNL1        0.1285
     14 N         142.5018  139.0296  169.4317 N.ar    1  UNL1       -0.2180
     15 C         142.5008  139.7878  168.1374 C.ar    1  UNL1        0.2279
     16 C         143.1332  139.5037  166.8072 C.2     1  UNL1        0.3476
     17 N         143.9436  138.2565  166.6131 N.pl3   1  UNL1       -0.2439
     18 N         142.9551  140.4669  165.6712 N.2     1  UNL1       -0.0653
     19 H         144.0605  137.6244  167.3587 H       1  UNL1        0.2885
     20 H         144.3586  138.0700  165.7400 H       1  UNL1        0.2885
     21 C         140.3388  142.1127  170.3704 C.1     1  UNL1        0.1196
     22 N         139.4870  143.1778  170.9950 N.1     1  UNL1       -0.1893
     23 C         140.0734  142.2338  160.2575 C.2     1  UNL1        0.2688
     24 O         140.0342  143.6309  160.8021 O.2     1  UNL1       -0.2681
     25 N         141.0560  141.2422  160.8064 N.am    1  UNL1       -0.2791
     26 H         141.0817  140.3253  160.4489 H       1  UNL1        0.1552
     27 C         137.2431  141.0174  156.9773 C.ar    1  UNL1        0.2449
     28 C         137.5443  142.4686  157.2082 C.ar    1  UNL1        0.1565
     29 N         138.4877  142.8740  158.3017 N.ar    1  UNL1       -0.2328
     30 C         139.1299  141.8283  159.1641 C.ar    1  UNL1        0.1541
     31 C         138.8288  140.3771  158.9333 C.ar    1  UNL1        0.1258
     32 N         137.8854  139.9717  157.8399 N.ar    1  UNL1       -0.2071
     33 C         134.8227  140.5748  156.1431 C.3     1  UNL1        0.2543
     34 O         136.2997  140.6119  155.8839 O.3     1  UNL1       -0.4551
@<TRIPOS>BOND
     1    33    34    1
     2    34    27    1
     3    27    28   ar
     4    28    29   ar
     5    29    30   ar
     6    30    23    1
     7    23    24    2
     8    23    25   am
     9    25     1    1
    10     1     2   ar
    11     2     3   ar
    12     3     4   ar
    13     4     5    1
    14     4     6   ar
    15     6     8    1
    16     8     9    1
    17     8    10    1
    18    10    11    1
    19    11    12   ar
    20    12    21    1
    21    21    22    3
    22    12    13   ar
    23    13    14   ar
    24    14    15   ar
    25    15    16    1
    26    16    17    1
    27    16    18    2
    28     6     7   ar
    29    30    31   ar
    30    31    32   ar
    31    32    27   ar
    32     7     1   ar
    33    18     8    1
    34    15    11   ar
    35    25    26    1
    36    17    19    1
    37    17    20    1
