@<TRIPOS>MOLECULE
*****
 35 40 0 0 0
SMALL
GASTEIGER

@<TRIPOS>ATOM
      1 C         141.9503  139.6638  157.7829 C.2     1  UNL1        0.3047
      2 O         142.5034  141.0156  157.4416 O.2     1  UNL1       -0.2647
      3 N         140.7785  139.5456  158.7118 N.am    1  UNL1       -0.2647
      4 C         139.9231  140.5175  159.4692 C.3     1  UNL1        0.1391
      5 C         139.1213  139.3783  160.0255 C.3     1  UNL1        0.2052
      6 C         139.9767  138.4064  159.2681 C.3     1  UNL1        0.1391
      7 C         142.9756  136.1145  156.5927 C.ar    1  UNL1        0.2501
      8 N         144.0666  136.9488  155.9897 N.ar    1  UNL1       -0.1068
      9 N         143.8153  138.3799  156.3622 N.ar    1  UNL1       -0.1021
     10 C         142.5691  138.4301  157.1953 C.ar    1  UNL1        0.3043
     11 O         142.0501  137.0299  157.3379 O.2     1  UNL1       -0.4122
     12 C         142.5536  131.6490  156.2301 C.ar    1  UNL1        0.1387
     13 C         141.6684  132.5537  155.4252 C.ar    1  UNL1        0.0371
     14 C         141.8091  134.0423  155.5460 C.ar    1  UNL1        0.0078
     15 C         142.8349  134.6260  156.4718 C.ar    1  UNL1        0.0553
     16 C         143.7200  133.7211  157.2768 C.ar    1  UNL1        0.0078
     17 C         143.5793  132.2326  157.1559 C.ar    1  UNL1        0.0371
     18 C         143.6358  129.2953  156.0329 C.3     1  UNL1        0.2525
     19 O         142.4129  130.1605  156.1092 O.3     1  UNL1       -0.4714
     20 O         137.9495  139.2601  160.9544 O.3     1  UNL1       -0.4756
     21 C         138.1590  139.3269  162.4382 C.ar    1  UNL1        0.1385
     22 C         137.8602  140.5949  163.1816 C.ar    1  UNL1        0.0366
     23 C         138.0697  140.6616  164.6654 C.ar    1  UNL1        0.0002
     24 C         138.5779  139.4602  165.4058 C.ar    1  UNL1       -0.0059
     25 C         138.8766  138.1921  164.6624 C.ar    1  UNL1        0.0002
     26 C         138.6672  138.1254  163.1786 C.ar    1  UNL1        0.0366
     27 C         138.7874  139.5269  166.8896 C.3     1  UNL1        0.0992
     28 N         140.1624  139.7566  167.4434 N.3     1  UNL1       -0.2671
     29 C         141.4355  139.8017  166.6516 C.3     1  UNL1        0.0725
     30 C         142.5656  140.0545  167.6050 C.3     1  UNL1        0.0188
     31 C         141.9909  140.1656  168.9860 C.3     1  UNL1        0.0211
     32 C         140.5056  139.9815  168.8861 C.3     1  UNL1        0.1006
     33 C         139.0195  139.8274  169.0197 C.3     1  UNL1        0.1591
     34 O         139.1316  140.0307  170.5017 O.3     1  UNL1       -0.3508
     35 C         140.6177  140.1849  170.3681 C.3     1  UNL1        0.1591
@<TRIPOS>BOND
     1    18    19    1
     2    19    12    1
     3    12    13   ar
     4    13    14   ar
     5    14    15   ar
     6    15     7    1
     7     7     8   ar
     8     8     9   ar
     9     9    10   ar
    10    10     1    1
    11     1     2    2
    12     1     3   am
    13     3     4    1
    14     4     5    1
    15     5    20    1
    16    20    21    1
    17    21    22   ar
    18    22    23   ar
    19    23    24   ar
    20    24    27    1
    21    27    28    1
    22    28    29    1
    23    29    30    1
    24    30    31    1
    25    31    32    1
    26    32    33    1
    27    33    34    1
    28    34    35    1
    29    24    25   ar
    30    25    26   ar
    31     5     6    1
    32    10    11   ar
    33    15    16   ar
    34    16    17   ar
    35    17    12   ar
    36    11     7   ar
    37     6     3    1
    38    26    21   ar
    39    32    28    1
    40    35    32    1
@<TRIPOS>MOLECULE
*****
 35 40 0 0 0
SMALL
GASTEIGER

@<TRIPOS>ATOM
      1 C         142.3133  139.5250  158.1589 C.2     1  UNL1        0.3047
      2 O         141.1158  140.2669  157.6435 O.2     1  UNL1       -0.2647
      3 N         143.0022  139.9884  159.4081 N.am    1  UNL1       -0.2647
      4 C         142.7930  141.1111  160.3807 C.3     1  UNL1        0.1391
      5 C         143.9766  140.6437  161.1748 C.3     1  UNL1        0.2052
      6 C         144.1858  139.5210  160.2023 C.3     1  UNL1        0.1391
      7 C         143.1172  136.0325  156.6683 C.ar    1  UNL1        0.2501
      8 N         144.0912  136.8968  155.9236 N.ar    1  UNL1       -0.1068
      9 N         143.9085  138.3101  156.3913 N.ar    1  UNL1       -0.1021
     10 C         142.8218  138.3196  157.4251 C.ar    1  UNL1        0.3043
     11 O         142.3327  136.9119  157.5963 O.2     1  UNL1       -0.4122
     12 C         142.6340  131.5831  156.2006 C.ar    1  UNL1        0.1387
     13 C         141.7176  132.5180  155.4684 C.ar    1  UNL1        0.0371
     14 C         141.8787  134.0012  155.6243 C.ar    1  UNL1        0.0078
     15 C         142.9561  134.5494  156.5124 C.ar    1  UNL1        0.0553
     16 C         143.8725  133.6143  157.2445 C.ar    1  UNL1        0.0078
     17 C         143.7114  132.1312  157.0886 C.ar    1  UNL1        0.0371
     18 C         143.0823  129.1694  157.0510 C.3     1  UNL1        0.2525
     19 O         142.4729  130.0999  156.0446 O.3     1  UNL1       -0.4714
     20 O         144.6655  141.1072  162.4241 O.3     1  UNL1       -0.4756
     21 C         144.1030  140.7491  163.7677 C.ar    1  UNL1        0.1385
     22 C         144.2825  139.3624  164.3106 C.ar    1  UNL1        0.0366
     23 C         143.7200  139.0043  165.6542 C.ar    1  UNL1        0.0002
     24 C         142.9778  140.0330  166.4550 C.ar    1  UNL1       -0.0059
     25 C         142.7983  141.4196  165.9120 C.ar    1  UNL1        0.0002
     26 C         143.3609  141.7777  164.5684 C.ar    1  UNL1        0.0366
     27 C         142.4153  139.6749  167.7986 C.3     1  UNL1        0.0992
     28 N         142.1525  140.7490  168.8121 N.3     1  UNL1       -0.2671
     29 C         143.1566  141.7337  169.3338 C.3     1  UNL1        0.0725
     30 C         142.4641  142.6202  170.3260 C.3     1  UNL1        0.0188
     31 C         141.0320  142.1835  170.4175 C.3     1  UNL1        0.0211
     32 C         140.8395  141.0270  169.4818 C.3     1  UNL1        0.1006
     33 C         140.4235  139.8717  168.6203 C.3     1  UNL1        0.1591
     34 O         139.0281  139.9702  169.1620 O.3     1  UNL1       -0.3508
     35 C         139.4441  141.1255  170.0235 C.3     1  UNL1        0.1591
@<TRIPOS>BOND
     1    18    19    1
     2    19    12    1
     3    12    13   ar
     4    13    14   ar
     5    14    15   ar
     6    15     7    1
     7     7     8   ar
     8     8     9   ar
     9     9    10   ar
    10    10     1    1
    11     1     2    2
    12     1     3   am
    13     3     4    1
    14     4     5    1
    15     5    20    1
    16    20    21    1
    17    21    22   ar
    18    22    23   ar
    19    23    24   ar
    20    24    27    1
    21    27    28    1
    22    28    29    1
    23    29    30    1
    24    30    31    1
    25    31    32    1
    26    32    33    1
    27    33    34    1
    28    34    35    1
    29    24    25   ar
    30    25    26   ar
    31     5     6    1
    32    10    11   ar
    33    15    16   ar
    34    16    17   ar
    35    17    12   ar
    36    11     7   ar
    37     6     3    1
    38    26    21   ar
    39    32    28    1
    40    35    32    1
@<TRIPOS>MOLECULE
*****
 35 40 0 0 0
SMALL
GASTEIGER

@<TRIPOS>ATOM
      1 C         140.2279  143.3122  156.8856 C.2     1  UNL1        0.3047
      2 O         141.7037  143.1181  156.7005 O.2     1  UNL1       -0.2647
      3 N         139.4319  142.3098  157.6676 N.am    1  UNL1       -0.2647
      4 C         139.7490  141.0333  158.3887 C.3     1  UNL1        0.1391
      5 C         138.3061  140.8922  158.7735 C.3     1  UNL1        0.2052
      6 C         137.9890  142.1688  158.0524 C.3     1  UNL1        0.1391
      7 C         139.0548  146.7897  155.6223 C.ar    1  UNL1        0.2501
      8 N         137.9494  145.9101  155.1180 N.ar    1  UNL1       -0.1068
      9 N         138.2543  144.5004  155.5298 N.ar    1  UNL1       -0.1021
     10 C         139.5481  144.5087  156.2887 C.ar    1  UNL1        0.3043
     11 O         140.0429  145.9236  156.3458 O.2     1  UNL1       -0.4122
     12 C         139.3542  151.2447  155.0627 C.ar    1  UNL1        0.1387
     13 C         138.6252  150.6851  156.2482 C.ar    1  UNL1        0.0371
     14 C         138.5254  149.2001  156.4348 C.ar    1  UNL1        0.0078
     15 C         139.1546  148.2747  155.4358 C.ar    1  UNL1        0.0553
     16 C         139.8835  148.8345  154.2503 C.ar    1  UNL1        0.0078
     17 C         139.9833  150.3195  154.0638 C.ar    1  UNL1        0.0371
     18 C         138.2145  153.5741  154.9041 C.3     1  UNL1        0.2525
     19 O         139.4539  152.7297  154.8762 O.3     1  UNL1       -0.4714
     20 O         137.5101  139.8899  159.5555 O.3     1  UNL1       -0.4756
     21 C         137.8232  139.6477  161.0023 C.ar    1  UNL1        0.1385
     22 C         138.3245  138.3057  161.4468 C.ar    1  UNL1        0.0366
     23 C         138.6376  138.0635  162.8936 C.ar    1  UNL1        0.0002
     24 C         138.4494  139.1633  163.8961 C.ar    1  UNL1       -0.0059
     25 C         137.9480  140.5053  163.4516 C.ar    1  UNL1        0.0002
     26 C         137.6349  140.7475  162.0048 C.ar    1  UNL1        0.0366
     27 C         138.7625  138.9212  165.3429 C.3     1  UNL1        0.0992
     28 N         140.0367  139.4485  165.9330 N.3     1  UNL1       -0.2671
     29 C         141.3195  139.6853  165.1925 C.3     1  UNL1        0.0725
     30 C         142.3275  140.2148  166.1690 C.3     1  UNL1        0.0188
     31 C         141.6676  140.3053  167.5130 C.3     1  UNL1        0.0211
     32 C         140.2519  139.8317  167.3671 C.3     1  UNL1        0.1006
     33 C         138.8169  139.4029  167.4515 C.3     1  UNL1        0.1591
     34 O         138.8075  139.7230  168.9170 O.3     1  UNL1       -0.3508
     35 C         140.2424  140.1518  168.8326 C.3     1  UNL1        0.1591
@<TRIPOS>BOND
     1    18    19    1
     2    19    12    1
     3    12    13   ar
     4    13    14   ar
     5    14    15   ar
     6    15     7    1
     7     7     8   ar
     8     8     9   ar
     9     9    10   ar
    10    10     1    1
    11     1     2    2
    12     1     3   am
    13     3     4    1
    14     4     5    1
    15     5    20    1
    16    20    21    1
    17    21    22   ar
    18    22    23   ar
    19    23    24   ar
    20    24    27    1
    21    27    28    1
    22    28    29    1
    23    29    30    1
    24    30    31    1
    25    31    32    1
    26    32    33    1
    27    33    34    1
    28    34    35    1
    29    24    25   ar
    30    25    26   ar
    31     5     6    1
    32    10    11   ar
    33    15    16   ar
    34    16    17   ar
    35    17    12   ar
    36    11     7   ar
    37     6     3    1
    38    26    21   ar
    39    32    28    1
    40    35    32    1
@<TRIPOS>MOLECULE
*****
 35 40 0 0 0
SMALL
GASTEIGER

@<TRIPOS>ATOM
      1 C         138.8213  142.5754  160.5488 C.2     1  UNL1        0.3047
      2 O         139.2139  143.9931  160.2557 O.2     1  UNL1       -0.2647
      3 N         138.7092  141.5817  159.4308 N.am    1  UNL1       -0.2647
      4 C         138.9048  141.6309  157.9444 C.3     1  UNL1        0.1391
      5 C         138.5506  140.1763  157.8497 C.3     1  UNL1        0.2052
      6 C         138.3550  140.1272  159.3361 C.3     1  UNL1        0.1391
      7 C         138.8048  141.6969  164.3295 C.ar    1  UNL1        0.2501
      8 N         137.4131  141.3010  163.9338 N.ar    1  UNL1       -0.1068
      9 N         137.2499  141.5819  162.4695 N.ar    1  UNL1       -0.1021
     10 C         138.5407  142.1514  161.9601 C.ar    1  UNL1        0.3043
     11 O         139.5017  142.2224  163.1096 O.2     1  UNL1       -0.4122
     12 C         140.5777  141.3657  168.4522 C.ar    1  UNL1        0.1387
     13 C         140.7945  142.6082  167.6402 C.ar    1  UNL1        0.0371
     14 C         140.2035  142.7186  166.2659 C.ar    1  UNL1        0.0078
     15 C         139.3958  141.5865  165.7037 C.ar    1  UNL1        0.0553
     16 C         139.1790  140.3441  166.5158 C.ar    1  UNL1        0.0078
     17 C         139.7700  140.2337  167.8901 C.ar    1  UNL1        0.0371
     18 C         140.5258  141.9686  170.9789 C.3     1  UNL1        0.2525
     19 O         141.1687  141.2553  169.8265 O.3     1  UNL1       -0.4714
     20 O         138.4386  139.1826  156.7317 O.3     1  UNL1       -0.4756
     21 C         139.5348  138.1848  156.5024 C.ar    1  UNL1        0.1385
     22 C         139.4329  137.2053  155.3710 C.ar    1  UNL1        0.0366
     23 C         140.5292  136.2075  155.1418 C.ar    1  UNL1        0.0002
     24 C         141.7274  136.1891  156.0440 C.ar    1  UNL1       -0.0059
     25 C         141.8292  137.1686  157.1754 C.ar    1  UNL1        0.0002
     26 C         140.7330  138.1664  157.4047 C.ar    1  UNL1        0.0366
     27 C         142.8236  135.1913  155.8147 C.3     1  UNL1        0.0992
     28 N         142.5162  133.7232  155.8274 N.3     1  UNL1       -0.2671
     29 C         141.4422  133.0404  155.0335 C.3     1  UNL1        0.0725
     30 C         141.4910  131.5754  155.3516 C.3     1  UNL1        0.0188
     31 C         142.5952  131.3527  156.3422 C.3     1  UNL1        0.0211
     32 C         143.2287  132.6801  156.6362 C.3     1  UNL1        0.1006
     33 C         144.0040  133.8872  157.0747 C.3     1  UNL1        0.1591
     34 O         144.8482  133.0222  157.9631 O.3     1  UNL1       -0.3508
     35 C         144.0730  131.8152  157.5246 C.3     1  UNL1        0.1591
@<TRIPOS>BOND
     1    18    19    1
     2    19    12    1
     3    12    13   ar
     4    13    14   ar
     5    14    15   ar
     6    15     7    1
     7     7     8   ar
     8     8     9   ar
     9     9    10   ar
    10    10     1    1
    11     1     2    2
    12     1     3   am
    13     3     4    1
    14     4     5    1
    15     5    20    1
    16    20    21    1
    17    21    22   ar
    18    22    23   ar
    19    23    24   ar
    20    24    27    1
    21    27    28    1
    22    28    29    1
    23    29    30    1
    24    30    31    1
    25    31    32    1
    26    32    33    1
    27    33    34    1
    28    34    35    1
    29    24    25   ar
    30    25    26   ar
    31     5     6    1
    32    10    11   ar
    33    15    16   ar
    34    16    17   ar
    35    17    12   ar
    36    11     7   ar
    37     6     3    1
    38    26    21   ar
    39    32    28    1
    40    35    32    1
@<TRIPOS>MOLECULE
*****
 35 40 0 0 0
SMALL
GASTEIGER

@<TRIPOS>ATOM
      1 C         140.2957  138.8737  160.7690 C.2     1  UNL1        0.3047
      2 O         139.0725  139.6883  160.4691 O.2     1  UNL1       -0.2647
      3 N         141.1979  138.4368  159.6531 N.am    1  UNL1       -0.2647
      4 C         141.2055  138.6146  158.1637 C.3     1  UNL1        0.1391
      5 C         142.4740  137.8188  158.0752 C.3     1  UNL1        0.2052
      6 C         142.4664  137.6410  159.5646 C.3     1  UNL1        0.1391
      7 C         141.0440  138.6326  164.5699 C.ar    1  UNL1        0.2501
      8 N         141.1777  137.1969  164.1565 N.ar    1  UNL1       -0.1068
      9 N         140.9137  137.1125  162.6824 N.ar    1  UNL1       -0.1021
     10 C         140.6168  138.4959  162.1847 C.ar    1  UNL1        0.3043
     11 O         140.6973  139.4355  163.3512 O.2     1  UNL1       -0.4122
     12 C         141.5875  140.2474  168.7349 C.ar    1  UNL1        0.1387
     13 C         140.2452  140.3249  168.0698 C.ar    1  UNL1        0.0371
     14 C         140.0640  139.7866  166.6814 C.ar    1  UNL1        0.0078
     15 C         141.2251  139.1709  165.9582 C.ar    1  UNL1        0.0553
     16 C         142.5674  139.0935  166.6235 C.ar    1  UNL1        0.0078
     17 C         142.7485  139.6317  168.0118 C.ar    1  UNL1        0.0371
     18 C         140.6279  140.7492  171.0965 C.3     1  UNL1        0.2525
     19 O         141.7687  140.7857  170.1232 O.3     1  UNL1       -0.4714
     20 O         143.3762  137.3819  156.9593 O.3     1  UNL1       -0.4756
     21 C         143.3478  135.9591  156.4853 C.ar    1  UNL1        0.1385
     22 C         143.0983  135.6556  155.0377 C.ar    1  UNL1        0.0366
     23 C         143.0699  134.2328  154.5637 C.ar    1  UNL1        0.0002
     24 C         143.2911  133.1133  155.5374 C.ar    1  UNL1       -0.0059
     25 C         143.5406  133.4168  156.9849 C.ar    1  UNL1        0.0002
     26 C         143.5690  134.8397  157.4589 C.ar    1  UNL1        0.0366
     27 C         143.2627  131.6905  155.0634 C.3     1  UNL1        0.0992
     28 N         141.9591  130.9529  154.9821 N.3     1  UNL1       -0.2671
     29 C         140.6322  131.5459  154.6111 C.3     1  UNL1        0.0725
     30 C         139.6066  130.4523  154.6572 C.3     1  UNL1        0.0188
     31 C         140.2996  129.1834  155.0567 C.3     1  UNL1        0.0211
     32 C         141.7535  129.4928  155.2574 C.3     1  UNL1        0.1006
     33 C         143.2297  129.5739  155.5112 C.3     1  UNL1        0.1591
     34 O         143.2554  128.1084  155.8303 O.3     1  UNL1       -0.3508
     35 C         141.7792  128.0273  155.5765 C.3     1  UNL1        0.1591
@<TRIPOS>BOND
     1    18    19    1
     2    19    12    1
     3    12    13   ar
     4    13    14   ar
     5    14    15   ar
     6    15     7    1
     7     7     8   ar
     8     8     9   ar
     9     9    10   ar
    10    10     1    1
    11     1     2    2
    12     1     3   am
    13     3     4    1
    14     4     5    1
    15     5    20    1
    16    20    21    1
    17    21    22   ar
    18    22    23   ar
    19    23    24   ar
    20    24    27    1
    21    27    28    1
    22    28    29    1
    23    29    30    1
    24    30    31    1
    25    31    32    1
    26    32    33    1
    27    33    34    1
    28    34    35    1
    29    24    25   ar
    30    25    26   ar
    31     5     6    1
    32    10    11   ar
    33    15    16   ar
    34    16    17   ar
    35    17    12   ar
    36    11     7   ar
    37     6     3    1
    38    26    21   ar
    39    32    28    1
    40    35    32    1
@<TRIPOS>MOLECULE
*****
 35 40 0 0 0
SMALL
GASTEIGER

@<TRIPOS>ATOM
      1 C         142.0537  139.7046  157.5362 C.2     1  UNL1        0.3047
      2 O         140.7110  140.1205  157.0127 O.2     1  UNL1       -0.2647
      3 N         142.7448  140.5378  158.5745 N.am    1  UNL1       -0.2647
      4 C         142.4193  141.8068  159.3052 C.3     1  UNL1        0.1391
      5 C         143.7222  141.7162  160.0430 C.3     1  UNL1        0.2052
      6 C         144.0477  140.4472  159.3123 C.3     1  UNL1        0.1391
      7 C         143.1722  136.1202  156.5531 C.ar    1  UNL1        0.2501
      8 N         144.2440  136.9461  155.9057 N.ar    1  UNL1       -0.1068
      9 N         143.9555  138.3893  156.1952 N.ar    1  UNL1       -0.1021
     10 C         142.7054  138.4554  157.0215 C.ar    1  UNL1        0.3043
     11 O         142.2213  137.0530  157.2427 O.2     1  UNL1       -0.4122
     12 C         142.8639  131.6321  156.4454 C.ar    1  UNL1        0.1387
     13 C         141.9176  132.4684  155.6361 C.ar    1  UNL1        0.0371
     14 C         142.0204  133.9645  155.6719 C.ar    1  UNL1        0.0078
     15 C         143.0694  134.6242  156.5172 C.ar    1  UNL1        0.0553
     16 C         144.0157  133.7877  157.3265 C.ar    1  UNL1        0.0078
     17 C         143.9129  132.2917  157.2906 C.ar    1  UNL1        0.0371
     18 C         143.2537  129.3223  157.5694 C.3     1  UNL1        0.2525
     19 O         142.7611  130.1360  156.4095 O.3     1  UNL1       -0.4714
     20 O         144.4133  142.5494  161.0813 O.3     1  UNL1       -0.4756
     21 C         144.0486  142.3987  162.5284 C.ar    1  UNL1        0.1385
     22 C         143.2684  143.4762  163.2214 C.ar    1  UNL1        0.0366
     23 C         142.9037  143.3255  164.6686 C.ar    1  UNL1        0.0002
     24 C         143.3191  142.0973  165.4228 C.ar    1  UNL1       -0.0059
     25 C         144.0993  141.0198  164.7297 C.ar    1  UNL1        0.0002
     26 C         144.4640  141.1705  163.2826 C.ar    1  UNL1        0.0366
     27 C         142.9544  141.9466  166.8699 C.3     1  UNL1        0.0992
     28 N         141.6717  141.2702  167.2536 N.3     1  UNL1       -0.2671
     29 C         140.9263  140.2617  166.4306 C.3     1  UNL1        0.0725
     30 C         139.7031  139.8518  167.1960 C.3     1  UNL1        0.0188
     31 C         139.6926  140.6070  168.4920 C.3     1  UNL1        0.0211
     32 C         140.9092  141.4835  168.5275 C.3     1  UNL1        0.1006
     33 C         142.0474  142.4290  168.7741 C.3     1  UNL1        0.1591
     34 O         141.4556  142.7948  170.1031 O.3     1  UNL1       -0.3508
     35 C         140.3175  141.8493  169.8565 C.3     1  UNL1        0.1591
@<TRIPOS>BOND
     1    18    19    1
     2    19    12    1
     3    12    13   ar
     4    13    14   ar
     5    14    15   ar
     6    15     7    1
     7     7     8   ar
     8     8     9   ar
     9     9    10   ar
    10    10     1    1
    11     1     2    2
    12     1     3   am
    13     3     4    1
    14     4     5    1
    15     5    20    1
    16    20    21    1
    17    21    22   ar
    18    22    23   ar
    19    23    24   ar
    20    24    27    1
    21    27    28    1
    22    28    29    1
    23    29    30    1
    24    30    31    1
    25    31    32    1
    26    32    33    1
    27    33    34    1
    28    34    35    1
    29    24    25   ar
    30    25    26   ar
    31     5     6    1
    32    10    11   ar
    33    15    16   ar
    34    16    17   ar
    35    17    12   ar
    36    11     7   ar
    37     6     3    1
    38    26    21   ar
    39    32    28    1
    40    35    32    1
@<TRIPOS>MOLECULE
*****
 35 40 0 0 0
SMALL
GASTEIGER

@<TRIPOS>ATOM
      1 C         139.9980  139.0300  159.6072 C.2     1  UNL1        0.3047
      2 O         138.6171  139.2642  159.0704 O.2     1  UNL1       -0.2647
      3 N         141.0389  138.3824  158.7427 N.am    1  UNL1       -0.2647
      4 C         141.0723  137.8513  157.3403 C.3     1  UNL1        0.1391
      5 C         142.5109  137.4665  157.5203 C.3     1  UNL1        0.2052
      6 C         142.4775  137.9976  158.9227 C.3     1  UNL1        0.1391
      7 C         140.2364  139.7484  163.4140 C.ar    1  UNL1        0.2501
      8 N         141.4866  140.4106  162.9153 N.ar    1  UNL1       -0.1068
      9 N         141.5494  140.2220  161.4285 N.ar    1  UNL1       -0.1021
     10 C         140.3382  139.4434  161.0084 C.ar    1  UNL1        0.3043
     11 O         139.5267  139.1507  162.2355 O.2     1  UNL1       -0.4122
     12 C         138.8574  139.5841  167.6944 C.ar    1  UNL1        0.1387
     13 C         140.0602  140.4007  167.3248 C.ar    1  UNL1        0.0371
     14 C         140.5199  140.4555  165.8980 C.ar    1  UNL1        0.0078
     15 C         139.7768  139.6937  164.8408 C.ar    1  UNL1        0.0553
     16 C         138.5740  138.8771  165.2105 C.ar    1  UNL1        0.0078
     17 C         138.1143  138.8224  166.6373 C.ar    1  UNL1        0.0371
     18 C         138.9487  140.4990  170.1243 C.3     1  UNL1        0.2525
     19 O         138.3977  139.5294  169.1212 O.3     1  UNL1       -0.4714
     20 O         143.5517  136.8189  156.6558 O.3     1  UNL1       -0.4756
     21 C         143.4633  135.3540  156.3454 C.ar    1  UNL1        0.1385
     22 C         143.6708  134.3429  157.4337 C.ar    1  UNL1        0.0366
     23 C         143.5824  132.8780  157.1233 C.ar    1  UNL1        0.0002
     24 C         143.2864  132.4243  155.7245 C.ar    1  UNL1       -0.0059
     25 C         143.0789  133.4354  154.6362 C.ar    1  UNL1        0.0002
     26 C         143.1673  134.9003  154.9467 C.ar    1  UNL1        0.0366
     27 C         143.1980  130.9594  155.4141 C.3     1  UNL1        0.0992
     28 N         141.8580  130.3124  155.2251 N.3     1  UNL1       -0.2671
     29 C         140.6161  130.9872  154.7228 C.3     1  UNL1        0.0725
     30 C         139.5152  129.9688  154.6924 C.3     1  UNL1        0.0188
     31 C         140.0767  128.6646  155.1760 C.3     1  UNL1        0.0211
     32 C         141.5246  128.8770  155.5052 C.3     1  UNL1        0.1006
     33 C         142.9735  128.8615  155.8932 C.3     1  UNL1        0.1591
     34 O         142.8655  127.4056  156.2383 O.3     1  UNL1       -0.3508
     35 C         141.4165  127.4212  155.8503 C.3     1  UNL1        0.1591
@<TRIPOS>BOND
     1    18    19    1
     2    19    12    1
     3    12    13   ar
     4    13    14   ar
     5    14    15   ar
     6    15     7    1
     7     7     8   ar
     8     8     9   ar
     9     9    10   ar
    10    10     1    1
    11     1     2    2
    12     1     3   am
    13     3     4    1
    14     4     5    1
    15     5    20    1
    16    20    21    1
    17    21    22   ar
    18    22    23   ar
    19    23    24   ar
    20    24    27    1
    21    27    28    1
    22    28    29    1
    23    29    30    1
    24    30    31    1
    25    31    32    1
    26    32    33    1
    27    33    34    1
    28    34    35    1
    29    24    25   ar
    30    25    26   ar
    31     5     6    1
    32    10    11   ar
    33    15    16   ar
    34    16    17   ar
    35    17    12   ar
    36    11     7   ar
    37     6     3    1
    38    26    21   ar
    39    32    28    1
    40    35    32    1
@<TRIPOS>MOLECULE
*****
 35 40 0 0 0
SMALL
GASTEIGER

@<TRIPOS>ATOM
      1 C         140.0445  141.4416  157.0689 C.2     1  UNL1        0.3047
      2 O         140.9312  142.3970  156.3267 O.2     1  UNL1       -0.2647
      3 N         139.3715  141.8743  158.3377 N.am    1  UNL1       -0.2647
      4 C         139.3448  143.1371  159.1468 C.3     1  UNL1        0.1391
      5 C         138.4197  142.4863  160.1320 C.3     1  UNL1        0.2052
      6 C         138.4464  141.2235  159.3229 C.3     1  UNL1        0.1391
      7 C         140.2410  137.7920  155.7623 C.ar    1  UNL1        0.2501
      8 N         138.7632  138.0423  155.7021 N.ar    1  UNL1       -0.1068
      9 N         138.5098  139.4398  156.1842 N.ar    1  UNL1       -0.1021
     10 C         139.8309  140.0534  156.5424 C.ar    1  UNL1        0.3043
     11 O         140.9008  139.0349  156.2816 O.2     1  UNL1       -0.4122
     12 C         142.3281  133.9814  154.5903 C.ar    1  UNL1        0.1387
     13 C         142.6074  134.6100  155.9233 C.ar    1  UNL1        0.0371
     14 C         141.9116  135.8803  156.3140 C.ar    1  UNL1        0.0078
     15 C         140.9367  136.5218  155.3717 C.ar    1  UNL1        0.0553
     16 C         140.6576  135.8931  154.0386 C.ar    1  UNL1        0.0078
     17 C         141.3533  134.6229  153.6480 C.ar    1  UNL1        0.0371
     18 C         143.6844  131.8651  155.2475 C.3     1  UNL1        0.2525
     19 O         143.0239  132.7113  154.1997 O.3     1  UNL1       -0.4714
     20 O         137.7467  142.9190  161.4008 O.3     1  UNL1       -0.4756
     21 C         138.0868  142.2459  162.6974 C.ar    1  UNL1        0.1385
     22 C         137.7028  140.8134  162.9222 C.ar    1  UNL1        0.0366
     23 C         138.0429  140.1403  164.2188 C.ar    1  UNL1        0.0002
     24 C         138.7670  140.8997  165.2908 C.ar    1  UNL1       -0.0059
     25 C         139.1509  142.3322  165.0660 C.ar    1  UNL1        0.0002
     26 C         138.8108  143.0053  163.7694 C.ar    1  UNL1        0.0366
     27 C         139.1070  140.2266  166.5874 C.3     1  UNL1        0.0992
     28 N         140.5389  139.9415  166.9315 N.3     1  UNL1       -0.2671
     29 C         141.6605  139.7554  165.9531 C.3     1  UNL1        0.0725
     30 C         142.9154  139.4913  166.7312 C.3     1  UNL1        0.0188
     31 C         142.5693  139.5143  168.1906 C.3     1  UNL1        0.0211
     32 C         141.1006  139.7925  168.3143 C.3     1  UNL1        0.1006
     33 C         139.6676  140.0570  168.6703 C.3     1  UNL1        0.1591
     34 O         140.0093  139.9480  170.1268 O.3     1  UNL1       -0.3508
     35 C         141.4423  139.6836  169.7708 C.3     1  UNL1        0.1591
@<TRIPOS>BOND
     1    18    19    1
     2    19    12    1
     3    12    13   ar
     4    13    14   ar
     5    14    15   ar
     6    15     7    1
     7     7     8   ar
     8     8     9   ar
     9     9    10   ar
    10    10     1    1
    11     1     2    2
    12     1     3   am
    13     3     4    1
    14     4     5    1
    15     5    20    1
    16    20    21    1
    17    21    22   ar
    18    22    23   ar
    19    23    24   ar
    20    24    27    1
    21    27    28    1
    22    28    29    1
    23    29    30    1
    24    30    31    1
    25    31    32    1
    26    32    33    1
    27    33    34    1
    28    34    35    1
    29    24    25   ar
    30    25    26   ar
    31     5     6    1
    32    10    11   ar
    33    15    16   ar
    34    16    17   ar
    35    17    12   ar
    36    11     7   ar
    37     6     3    1
    38    26    21   ar
    39    32    28    1
    40    35    32    1
@<TRIPOS>MOLECULE
*****
 35 40 0 0 0
SMALL
GASTEIGER

@<TRIPOS>ATOM
      1 C         142.9372  143.2625  160.3769 C.2     1  UNL1        0.3047
      2 O         142.2252  144.5651  160.1623 O.2     1  UNL1       -0.2647
      3 N         143.3103  142.4091  159.2011 N.am    1  UNL1       -0.2647
      4 C         143.1449  142.5208  157.7144 C.3     1  UNL1        0.1391
      5 C         143.8378  141.2022  157.5382 C.3     1  UNL1        0.2052
      6 C         144.0032  141.0904  159.0249 C.3     1  UNL1        0.1391
      7 C         143.0723  141.9872  164.0403 C.ar    1  UNL1        0.2501
      8 N         144.5236  142.2566  163.7735 N.ar    1  UNL1       -0.1068
      9 N         144.6496  142.7670  162.3687 N.ar    1  UNL1       -0.1021
     10 C         143.2763  142.8132  161.7673 C.ar    1  UNL1        0.3043
     11 O         142.3014  142.3313  162.8004 O.2     1  UNL1       -0.4122
     12 C         141.3360  140.4220  167.8855 C.ar    1  UNL1        0.1387
     13 C         142.5134  139.7348  167.2598 C.ar    1  UNL1        0.0371
     14 C         143.0922  140.2566  165.9780 C.ar    1  UNL1        0.0078
     15 C         142.4936  141.4655  165.3220 C.ar    1  UNL1        0.0553
     16 C         141.3161  142.1526  165.9479 C.ar    1  UNL1        0.0078
     17 C         140.7374  141.6308  167.2296 C.ar    1  UNL1        0.0371
     18 C         139.5761  140.5838  169.7899 C.3     1  UNL1        0.2525
     19 O         140.7572  139.9003  169.1672 O.3     1  UNL1       -0.4714
     20 O         144.2109  140.3488  156.3624 O.3     1  UNL1       -0.4756
     21 C         143.8110  138.9035  156.3278 C.ar    1  UNL1        0.1385
     22 C         142.7415  138.3988  157.2505 C.ar    1  UNL1        0.0366
     23 C         142.3417  136.9535  157.2158 C.ar    1  UNL1        0.0002
     24 C         143.0114  136.0128  156.2586 C.ar    1  UNL1       -0.0059
     25 C         144.0810  136.5174  155.3359 C.ar    1  UNL1        0.0002
     26 C         144.4808  137.9627  155.3705 C.ar    1  UNL1        0.0366
     27 C         142.6116  134.5675  156.2240 C.3     1  UNL1        0.0992
     28 N         143.5813  133.5103  156.6624 N.3     1  UNL1       -0.2671
     29 C         144.3696  133.5117  157.9386 C.3     1  UNL1        0.0725
     30 C         145.2084  132.2685  157.9666 C.3     1  UNL1        0.0188
     31 C         144.9385  131.4988  156.7077 C.3     1  UNL1        0.0211
     32 C         143.9330  132.2663  155.9017 C.3     1  UNL1        0.1006
     33 C         142.9465  132.8588  154.9395 C.3     1  UNL1        0.1591
     34 O         143.1463  131.6931  154.0169 O.3     1  UNL1       -0.3508
     35 C         144.1328  131.1006  154.9791 C.3     1  UNL1        0.1591
@<TRIPOS>BOND
     1    18    19    1
     2    19    12    1
     3    12    13   ar
     4    13    14   ar
     5    14    15   ar
     6    15     7    1
     7     7     8   ar
     8     8     9   ar
     9     9    10   ar
    10    10     1    1
    11     1     2    2
    12     1     3   am
    13     3     4    1
    14     4     5    1
    15     5    20    1
    16    20    21    1
    17    21    22   ar
    18    22    23   ar
    19    23    24   ar
    20    24    27    1
    21    27    28    1
    22    28    29    1
    23    29    30    1
    24    30    31    1
    25    31    32    1
    26    32    33    1
    27    33    34    1
    28    34    35    1
    29    24    25   ar
    30    25    26   ar
    31     5     6    1
    32    10    11   ar
    33    15    16   ar
    34    16    17   ar
    35    17    12   ar
    36    11     7   ar
    37     6     3    1
    38    26    21   ar
    39    32    28    1
    40    35    32    1
