@<TRIPOS>MOLECULE
*****
 24 28 0 0 0
SMALL
GASTEIGER

@<TRIPOS>ATOM
      1 N         137.9346  140.6824  164.7432 N.pl3   1  UNL1       -0.2524
      2 H         137.0425  140.3466  164.9893 H       1  UNL1        0.1580
      3 C         139.1144  140.3915  165.6226 C.2     1  UNL1        0.2847
      4 N         140.5176  140.1341  165.1590 N.2     1  UNL1       -0.2204
      5 C         141.3685  139.8905  166.3700 C.3     1  UNL1        0.1712
      6 C         140.4913  139.9974  167.5821 C.3     1  UNL1        0.1729
      7 C         139.4957  140.1340  168.6956 C.3     1  UNL1        0.1147
      8 N         139.9345  139.9615  170.1195 N.3     1  UNL1       -0.2697
      9 C         141.3690  139.6523  170.4300 C.3     1  UNL1        0.0723
     10 C         142.3647  139.5157  169.3165 C.3     1  UNL1        0.0209
     11 C         141.9259  139.6882  167.8926 C.3     1  UNL1        0.0429
     12 C         140.6961  139.9169  168.2466 C.3     1  UNL1        0.0209
     13 C         140.1651  139.9898  168.8404 C.3     1  UNL1        0.0723
     14 O         139.0982  140.3070  167.1202 O.2     1  UNL1       -0.4536
     15 BR        139.6883  146.1557  161.7518 Br      1  UNL1       -0.0280
     16 C         139.3608  145.0355  162.6940 C.ar    1  UNL1        0.1170
     17 C         139.5139  145.0651  164.1859 C.ar    1  UNL1        0.0276
     18 C         139.0704  143.7369  164.7237 C.ar    1  UNL1        0.0241
     19 C         138.6433  142.8865  163.5643 C.ar    1  UNL1        0.1151
     20 C         138.1141  141.4850  163.4887 C.ar    1  UNL1        0.1550
     21 N         137.7644  140.8861  162.1587 N.ar    1  UNL1       -0.2058
     22 C         137.9439  141.6886  160.9042 C.ar    1  UNL1        0.2211
     23 N         138.4731  143.0901  160.9798 N.ar    1  UNL1       -0.1418
     24 N         138.8228  143.6891  162.3098 N.ar    1  UNL1       -0.2192
@<TRIPOS>BOND
     1    15    16    1
     2    16    17   ar
     3    17    18   ar
     4    18    19   ar
     5    19    20   ar
     6    20     1    1
     7     1     3    1
     8     3     4    2
     9     4     5    1
    10     6     5    1
    11     6     7    1
    12     7     8    1
    13     8     9    1
    14     9    10    1
    15    10    11    1
    16    11    12    1
    17    12    13    1
    18     6    14    1
    19    20    21   ar
    20    21    22   ar
    21    22    23   ar
    22    23    24   ar
    23    24    16   ar
    24    24    19   ar
    25    14     3    1
    26    11     6    1
    27    13     8    1
    28     1     2    1
@<TRIPOS>MOLECULE
*****
 24 28 0 0 0
SMALL
GASTEIGER

@<TRIPOS>ATOM
      1 N         138.0108  139.7524  165.5141 N.pl3   1  UNL1       -0.2524
      2 H         137.2760  139.1336  165.7295 H       1  UNL1        0.1580
      3 C         139.2103  139.8337  166.4111 C.2     1  UNL1        0.2847
      4 N         140.6366  139.6227  165.9974 N.2     1  UNL1       -0.2204
      5 C         141.5018  139.7989  167.2099 C.3     1  UNL1        0.1712
      6 C         140.6103  140.1188  168.3731 C.3     1  UNL1        0.1729
      7 C         139.5983  140.4283  169.4361 C.3     1  UNL1        0.1147
      8 N         140.0447  140.6821  170.8454 N.3     1  UNL1       -0.2697
      9 C         141.5030  140.6263  171.1919 C.3     1  UNL1        0.0723
     10 C         142.5150  140.3167  170.1289 C.3     1  UNL1        0.0209
     11 C         142.0687  140.0629  168.7195 C.3     1  UNL1        0.0429
     12 C         140.8186  140.2372  169.0308 C.3     1  UNL1        0.0209
     13 C         140.2789  140.4023  169.5977 C.3     1  UNL1        0.0723
     14 O         139.1941  140.1403  167.8793 O.2     1  UNL1       -0.4536
     15 BR        138.1485  140.4212  159.0709 Br      1  UNL1       -0.0280
     16 C         138.1608  139.9755  160.5031 C.ar    1  UNL1        0.1170
     17 C         138.3466  138.5679  160.9868 C.ar    1  UNL1        0.0276
     18 C         138.2901  138.5816  162.4857 C.ar    1  UNL1        0.0241
     19 C         138.0694  139.9976  162.9283 C.ar    1  UNL1        0.1151
     20 C         137.9309  140.6140  164.2888 C.ar    1  UNL1        0.1550
     21 N         137.7125  142.0918  164.4240 N.ar    1  UNL1       -0.2058
     22 C         137.6325  142.9533  163.1987 C.ar    1  UNL1        0.2211
     23 N         137.7711  142.3370  161.8382 N.ar    1  UNL1       -0.1418
     24 N         137.9895  140.8592  161.7029 N.ar    1  UNL1       -0.2192
@<TRIPOS>BOND
     1    15    16    1
     2    16    17   ar
     3    17    18   ar
     4    18    19   ar
     5    19    20   ar
     6    20     1    1
     7     1     3    1
     8     3     4    2
     9     4     5    1
    10     6     5    1
    11     6     7    1
    12     7     8    1
    13     8     9    1
    14     9    10    1
    15    10    11    1
    16    11    12    1
    17    12    13    1
    18     6    14    1
    19    20    21   ar
    20    21    22   ar
    21    22    23   ar
    22    23    24   ar
    23    24    16   ar
    24    24    19   ar
    25    14     3    1
    26    11     6    1
    27    13     8    1
    28     1     2    1
@<TRIPOS>MOLECULE
*****
 24 28 0 0 0
SMALL
GASTEIGER

@<TRIPOS>ATOM
      1 N         138.1767  139.2779  165.4164 N.pl3   1  UNL1       -0.2524
      2 H         137.2585  139.1204  165.7348 H       1  UNL1        0.1580
      3 C         139.2802  139.5253  166.4019 C.2     1  UNL1        0.2847
      4 N         140.7503  139.4125  166.1262 N.2     1  UNL1       -0.2204
      5 C         141.4859  139.7464  167.3901 C.3     1  UNL1        0.1712
      6 C         140.4704  140.0655  168.4469 C.3     1  UNL1        0.1729
      7 C         139.3452  140.3571  169.3950 C.3     1  UNL1        0.1147
      8 N         139.6410  140.7448  170.8135 N.3     1  UNL1       -0.2697
      9 C         141.0620  140.8409  171.2840 C.3     1  UNL1        0.0723
     10 C         142.1873  140.5494  170.3359 C.3     1  UNL1        0.0209
     11 C         141.8914  140.1617  168.9174 C.3     1  UNL1        0.0429
     12 C         140.6085  140.2464  169.1089 C.3     1  UNL1        0.0209
     13 C         140.0083  140.4019  169.6145 C.3     1  UNL1        0.0723
     14 O         139.1072  139.9289  167.8362 O.2     1  UNL1       -0.4536
     15 BR        138.5046  142.3368  159.7141 Br      1  UNL1       -0.0280
     16 C         138.3374  141.8952  161.1378 C.ar    1  UNL1        0.1170
     17 C         137.8817  142.7545  162.2797 C.ar    1  UNL1        0.0276
     18 C         137.8592  141.9071  163.5172 C.ar    1  UNL1        0.0241
     19 C         138.3009  140.5242  163.1402 C.ar    1  UNL1        0.1151
     20 C         138.4723  139.2706  163.9459 C.ar    1  UNL1        0.1550
     21 N         138.9391  138.0096  163.2810 N.ar    1  UNL1       -0.2058
     22 C         139.2347  138.0023  161.8104 C.ar    1  UNL1        0.2211
     23 N         139.0633  139.2558  161.0047 N.ar    1  UNL1       -0.1418
     24 N         138.5965  140.5168  161.6695 N.ar    1  UNL1       -0.2192
@<TRIPOS>BOND
     1    15    16    1
     2    16    17   ar
     3    17    18   ar
     4    18    19   ar
     5    19    20   ar
     6    20     1    1
     7     1     3    1
     8     3     4    2
     9     4     5    1
    10     6     5    1
    11     6     7    1
    12     7     8    1
    13     8     9    1
    14     9    10    1
    15    10    11    1
    16    11    12    1
    17    12    13    1
    18     6    14    1
    19    20    21   ar
    20    21    22   ar
    21    22    23   ar
    22    23    24   ar
    23    24    16   ar
    24    24    19   ar
    25    14     3    1
    26    11     6    1
    27    13     8    1
    28     1     2    1
@<TRIPOS>MOLECULE
*****
 24 28 0 0 0
SMALL
GASTEIGER

@<TRIPOS>ATOM
      1 N         144.1479  143.5870  165.0894 N.pl3   1  UNL1       -0.2524
      2 H         144.6729  144.3208  165.4833 H       1  UNL1        0.1580
      3 C         143.6155  142.4917  165.9650 C.2     1  UNL1        0.2847
      4 N         143.1691  141.1349  165.5068 N.2     1  UNL1       -0.2204
      5 C         142.7137  140.3655  166.7112 C.3     1  UNL1        0.1712
      6 C         142.8786  141.2467  167.9138 C.3     1  UNL1        0.1729
      7 C         143.0982  142.2376  169.0183 C.3     1  UNL1        0.1147
      8 N         142.7644  141.8695  170.4336 N.3     1  UNL1       -0.2697
      9 C         142.2109  140.5104  170.7444 C.3     1  UNL1        0.0723
     10 C         141.9913  139.5196  169.6400 C.3     1  UNL1        0.0209
     11 C         142.3251  139.8877  168.2247 C.3     1  UNL1        0.0429
     12 C         142.7228  141.0749  168.5743 C.3     1  UNL1        0.0209
     13 C         142.8399  141.6034  169.1634 C.3     1  UNL1        0.0723
     14 O         143.4359  142.5608  167.4526 O.2     1  UNL1       -0.4536
     15 BR        140.5080  145.2417  159.9910 Br      1  UNL1       -0.0280
     16 C         141.1452  145.0104  161.3291 C.ar    1  UNL1        0.1170
     17 C         140.6334  145.5099  162.6476 C.ar    1  UNL1        0.0276
     18 C         141.5780  145.0471  163.7169 C.ar    1  UNL1        0.0241
     19 C         142.6737  144.2618  163.0593 C.ar    1  UNL1        0.1151
     20 C         143.8805  143.5643  163.6136 C.ar    1  UNL1        0.1550
     21 N         144.8198  142.8441  162.6922 N.ar    1  UNL1       -0.2058
     22 C         144.5523  142.8214  161.2164 C.ar    1  UNL1        0.2211
     23 N         143.3456  143.5189  160.6621 N.ar    1  UNL1       -0.1418
     24 N         142.4063  144.2390  161.5834 N.ar    1  UNL1       -0.2192
@<TRIPOS>BOND
     1    15    16    1
     2    16    17   ar
     3    17    18   ar
     4    18    19   ar
     5    19    20   ar
     6    20     1    1
     7     1     3    1
     8     3     4    2
     9     4     5    1
    10     6     5    1
    11     6     7    1
    12     7     8    1
    13     8     9    1
    14     9    10    1
    15    10    11    1
    16    11    12    1
    17    12    13    1
    18     6    14    1
    19    20    21   ar
    20    21    22   ar
    21    22    23   ar
    22    23    24   ar
    23    24    16   ar
    24    24    19   ar
    25    14     3    1
    26    11     6    1
    27    13     8    1
    28     1     2    1
@<TRIPOS>MOLECULE
*****
 24 28 0 0 0
SMALL
GASTEIGER

@<TRIPOS>ATOM
      1 N         138.5963  138.9154  165.7019 N.pl3   1  UNL1       -0.2524
      2 H         137.7470  138.4929  165.9653 H       1  UNL1        0.1580
      3 C         139.1806  140.0123  166.5418 C.2     1  UNL1        0.2847
      4 N         139.6854  141.3329  166.0407 N.2     1  UNL1       -0.2204
      5 C         140.1794  142.1179  167.2195 C.3     1  UNL1        0.1712
      6 C         139.9799  141.2825  168.4493 C.3     1  UNL1        0.1729
      7 C         139.7204  140.3370  169.5845 C.3     1  UNL1        0.1147
      8 N         140.0758  140.7333  170.9868 N.3     1  UNL1       -0.2697
      9 C         140.6907  142.0751  171.2540 C.3     1  UNL1        0.0723
     10 C         140.9502  143.0206  170.1188 C.3     1  UNL1        0.0209
     11 C         140.5948  142.6243  168.7165 C.3     1  UNL1        0.0429
     12 C         140.1458  141.4674  169.1037 C.3     1  UNL1        0.0209
     13 C         140.0074  140.9632  169.7092 C.3     1  UNL1        0.0723
     14 O         139.3626  139.9812  168.0304 O.2     1  UNL1       -0.4536
     15 BR        139.4056  139.1147  159.2765 Br      1  UNL1       -0.0280
     16 C         139.0008  139.2691  160.7126 C.ar    1  UNL1        0.1170
     17 C         137.9125  140.1618  161.2308 C.ar    1  UNL1        0.0276
     18 C         137.8524  140.0022  162.7210 C.ar    1  UNL1        0.0241
     19 C         138.9035  139.0109  163.1239 C.ar    1  UNL1        0.1151
     20 C         139.3061  138.4623  164.4606 C.ar    1  UNL1        0.1550
     21 N         140.4185  137.4605  164.5560 N.ar    1  UNL1       -0.2058
     22 C         141.1283  137.0074  163.3147 C.ar    1  UNL1        0.2211
     23 N         140.7257  137.5560  161.9780 N.ar    1  UNL1       -0.1418
     24 N         139.6134  138.5577  161.8825 N.ar    1  UNL1       -0.2192
@<TRIPOS>BOND
     1    15    16    1
     2    16    17   ar
     3    17    18   ar
     4    18    19   ar
     5    19    20   ar
     6    20     1    1
     7     1     3    1
     8     3     4    2
     9     4     5    1
    10     6     5    1
    11     6     7    1
    12     7     8    1
    13     8     9    1
    14     9    10    1
    15    10    11    1
    16    11    12    1
    17    12    13    1
    18     6    14    1
    19    20    21   ar
    20    21    22   ar
    21    22    23   ar
    22    23    24   ar
    23    24    16   ar
    24    24    19   ar
    25    14     3    1
    26    11     6    1
    27    13     8    1
    28     1     2    1
@<TRIPOS>MOLECULE
*****
 24 28 0 0 0
SMALL
GASTEIGER

@<TRIPOS>ATOM
      1 N         141.4506  138.3519  165.5212 N.pl3   1  UNL1       -0.2524
      2 H         141.8973  137.5973  165.9688 H       1  UNL1        0.1580
      3 C         141.2874  139.6591  166.2384 C.2     1  UNL1        0.2847
      4 N         141.6893  141.0070  165.7171 N.2     1  UNL1       -0.2204
      5 C         141.3438  142.0289  166.7594 C.3     1  UNL1        0.1712
      6 C         140.7283  141.3127  167.9248 C.3     1  UNL1        0.1729
      7 C         140.1332  140.4637  169.0088 C.3     1  UNL1        0.1147
      8 N         139.6393  141.1003  170.2740 N.3     1  UNL1       -0.2697
      9 C         139.7405  142.5858  170.4553 C.3     1  UNL1        0.0723
     10 C         140.3356  143.4348  169.3713 C.3     1  UNL1        0.0209
     11 C         140.8295  142.7982  168.1060 C.3     1  UNL1        0.0429
     12 C         140.4978  141.6098  168.5152 C.3     1  UNL1        0.0209
     13 C         140.1804  141.1570  169.0934 C.3     1  UNL1        0.0723
     14 O         140.6934  139.8481  167.6028 O.2     1  UNL1       -0.4536
     15 BR        142.4733  138.0557  159.1300 Br      1  UNL1       -0.0280
     16 C         142.5339  138.1625  160.6250 C.ar    1  UNL1        0.1170
     17 C         143.7726  138.3718  161.4444 C.ar    1  UNL1        0.0276
     18 C         143.3707  138.4174  162.8888 C.ar    1  UNL1        0.0241
     19 C         141.8835  138.2362  162.9621 C.ar    1  UNL1        0.1151
     20 C         140.9334  138.1944  164.1220 C.ar    1  UNL1        0.1550
     21 N         139.4661  137.9950  163.8828 N.ar    1  UNL1       -0.2058
     22 C         138.9489  137.8375  162.4837 C.ar    1  UNL1        0.2211
     23 N         139.8990  137.8793  161.3237 N.ar    1  UNL1       -0.1418
     24 N         141.3662  138.0787  161.5628 N.ar    1  UNL1       -0.2192
@<TRIPOS>BOND
     1    15    16    1
     2    16    17   ar
     3    17    18   ar
     4    18    19   ar
     5    19    20   ar
     6    20     1    1
     7     1     3    1
     8     3     4    2
     9     4     5    1
    10     6     5    1
    11     6     7    1
    12     7     8    1
    13     8     9    1
    14     9    10    1
    15    10    11    1
    16    11    12    1
    17    12    13    1
    18     6    14    1
    19    20    21   ar
    20    21    22   ar
    21    22    23   ar
    22    23    24   ar
    23    24    16   ar
    24    24    19   ar
    25    14     3    1
    26    11     6    1
    27    13     8    1
    28     1     2    1
@<TRIPOS>MOLECULE
*****
 24 28 0 0 0
SMALL
GASTEIGER

@<TRIPOS>ATOM
      1 N         138.4461  139.1441  166.7611 N.pl3   1  UNL1       -0.2524
      2 H         137.7850  138.4349  166.9319 H       1  UNL1        0.1580
      3 C         139.1713  139.7851  167.9071 C.2     1  UNL1        0.2847
      4 N         138.7382  139.7711  169.3431 N.2     1  UNL1       -0.2204
      5 C         139.7562  140.5299  170.1417 C.3     1  UNL1        0.1712
      6 C         140.8185  141.0130  169.1993 C.3     1  UNL1        0.1729
      7 C         141.7992  141.4264  168.1423 C.3     1  UNL1        0.1147
      8 N         143.0103  142.2288  168.5154 N.3     1  UNL1       -0.2697
      9 C         143.2407  142.6179  169.9456 C.3     1  UNL1        0.0723
     10 C         142.2601  142.2046  171.0026 C.3     1  UNL1        0.0209
     11 C         141.0490  141.4021  170.6295 C.3     1  UNL1        0.0429
     12 C         141.3837  141.3875  169.3734 C.3     1  UNL1        0.0209
     13 C         141.9067  141.6079  168.8097 C.3     1  UNL1        0.0723
     14 O         140.4570  140.5526  167.8182 O.2     1  UNL1       -0.4536
     15 BR        141.3866  138.2544  161.0565 Br      1  UNL1       -0.0280
     16 C         140.8451  138.2059  162.4545 C.ar    1  UNL1        0.1170
     17 C         141.1363  137.1474  163.4766 C.ar    1  UNL1        0.0276
     18 C         140.3884  137.4947  164.7296 C.ar    1  UNL1        0.0241
     19 C         139.6350  138.7678  164.4819 C.ar    1  UNL1        0.1151
     20 C         138.7284  139.5837  165.3550 C.ar    1  UNL1        0.1550
     21 N         138.1039  140.8391  164.8221 N.ar    1  UNL1       -0.2058
     22 C         138.3861  141.2787  163.4160 C.ar    1  UNL1        0.2211
     23 N         139.2928  140.4628  162.5429 N.ar    1  UNL1       -0.1418
     24 N         139.9172  139.2074  163.0757 N.ar    1  UNL1       -0.2192
@<TRIPOS>BOND
     1    15    16    1
     2    16    17   ar
     3    17    18   ar
     4    18    19   ar
     5    19    20   ar
     6    20     1    1
     7     1     3    1
     8     3     4    2
     9     4     5    1
    10     6     5    1
    11     6     7    1
    12     7     8    1
    13     8     9    1
    14     9    10    1
    15    10    11    1
    16    11    12    1
    17    12    13    1
    18     6    14    1
    19    20    21   ar
    20    21    22   ar
    21    22    23   ar
    22    23    24   ar
    23    24    16   ar
    24    24    19   ar
    25    14     3    1
    26    11     6    1
    27    13     8    1
    28     1     2    1
@<TRIPOS>MOLECULE
*****
 24 28 0 0 0
SMALL
GASTEIGER

@<TRIPOS>ATOM
      1 N         142.7962  138.7782  166.3051 N.pl3   1  UNL1       -0.2524
      2 H         143.3084  138.0661  166.7520 H       1  UNL1        0.1580
      3 C         142.4298  140.0234  167.0570 C.2     1  UNL1        0.2847
      4 N         143.0617  141.3733  166.8883 N.2     1  UNL1       -0.2204
      5 C         142.3897  142.3214  167.8367 C.3     1  UNL1        0.1712
      6 C         141.3424  141.5576  168.5915 C.3     1  UNL1        0.1729
      7 C         140.3392  140.6677  169.2635 C.3     1  UNL1        0.1147
      8 N         139.4272  141.2260  170.3154 N.3     1  UNL1       -0.2697
      9 C         139.5185  142.6742  170.6953 C.3     1  UNL1        0.0723
     10 C         140.5217  143.5641  170.0233 C.3     1  UNL1        0.0209
     11 C         141.4336  143.0057  168.9714 C.3     1  UNL1        0.0429
     12 C         140.9168  141.8181  169.0824 C.3     1  UNL1        0.0209
     13 C         140.3818  141.3435  169.4408 C.3     1  UNL1        0.0723
     14 O         141.3672  140.1373  168.1096 O.2     1  UNL1       -0.4536
     15 BR        138.1758  138.1624  161.8046 Br      1  UNL1       -0.0280
     16 C         139.0149  138.3166  163.0384 C.ar    1  UNL1        0.1170
     17 C         138.5031  138.4423  164.4427 C.ar    1  UNL1        0.0276
     18 C         139.6850  138.5757  165.3567 C.ar    1  UNL1        0.0241
     19 C         140.9272  138.5324  164.5172 C.ar    1  UNL1        0.1151
     20 C         142.3821  138.6181  164.8723 C.ar    1  UNL1        0.1550
     21 N         143.4228  138.5438  163.7946 N.ar    1  UNL1       -0.2058
     22 C         143.0087  138.3837  162.3619 C.ar    1  UNL1        0.2211
     23 N         141.5539  138.2980  162.0068 N.ar    1  UNL1       -0.1418
     24 N         140.5132  138.3723  163.0843 N.ar    1  UNL1       -0.2192
@<TRIPOS>BOND
     1    15    16    1
     2    16    17   ar
     3    17    18   ar
     4    18    19   ar
     5    19    20   ar
     6    20     1    1
     7     1     3    1
     8     3     4    2
     9     4     5    1
    10     6     5    1
    11     6     7    1
    12     7     8    1
    13     8     9    1
    14     9    10    1
    15    10    11    1
    16    11    12    1
    17    12    13    1
    18     6    14    1
    19    20    21   ar
    20    21    22   ar
    21    22    23   ar
    22    23    24   ar
    23    24    16   ar
    24    24    19   ar
    25    14     3    1
    26    11     6    1
    27    13     8    1
    28     1     2    1
@<TRIPOS>MOLECULE
*****
 24 28 0 0 0
SMALL
GASTEIGER

@<TRIPOS>ATOM
      1 N         142.9797  138.4178  158.1978 N.pl3   1  UNL1       -0.2524
      2 H         143.3395  139.2336  157.7806 H       1  UNL1        0.1580
      3 C         142.5748  137.2539  157.3425 C.2     1  UNL1        0.2847
      4 N         141.6121  137.2972  156.1930 N.2     1  UNL1       -0.2204
      5 C         141.5039  135.9125  155.6266 C.3     1  UNL1        0.1712
      6 C         142.3997  135.0133  156.4261 C.3     1  UNL1        0.1729
      7 C         143.3329  134.2408  157.3105 C.3     1  UNL1        0.1147
      8 N         143.5319  132.7707  157.0885 N.3     1  UNL1       -0.2697
      9 C         142.7977  132.0732  155.9820 C.3     1  UNL1        0.0723
     10 C         141.8645  132.8457  155.0975 C.3     1  UNL1        0.0209
     11 C         141.6655  134.3158  155.3196 C.3     1  UNL1        0.0429
     12 C         142.4926  134.3273  156.3225 C.3     1  UNL1        0.0209
     13 C         142.9902  133.9153  156.7942 C.3     1  UNL1        0.0723
     14 O         143.0615  135.8424  157.4865 O.2     1  UNL1       -0.4536
     15 BR        139.2660  138.1137  163.4985 Br      1  UNL1       -0.0280
     16 C         139.8638  138.1900  162.1248 C.ar    1  UNL1        0.1170
     17 C         139.1022  138.2525  160.8341 C.ar    1  UNL1        0.0276
     18 C         140.0959  138.3183  159.7124 C.ar    1  UNL1        0.0241
     19 C         141.4715  138.2964  160.3098 C.ar    1  UNL1        0.1151
     20 C         142.8362  138.3385  159.6888 C.ar    1  UNL1        0.1550
     21 N         144.0576  138.3012  160.5588 N.ar    1  UNL1       -0.2058
     22 C         143.9142  138.2220  162.0498 C.ar    1  UNL1        0.2211
     23 N         142.5494  138.1799  162.6708 N.ar    1  UNL1       -0.1418
     24 N         141.3281  138.2171  161.8009 N.ar    1  UNL1       -0.2192
@<TRIPOS>BOND
     1    15    16    1
     2    16    17   ar
     3    17    18   ar
     4    18    19   ar
     5    19    20   ar
     6    20     1    1
     7     1     3    1
     8     3     4    2
     9     4     5    1
    10     6     5    1
    11     6     7    1
    12     7     8    1
    13     8     9    1
    14     9    10    1
    15    10    11    1
    16    11    12    1
    17    12    13    1
    18     6    14    1
    19    20    21   ar
    20    21    22   ar
    21    22    23   ar
    22    23    24   ar
    23    24    16   ar
    24    24    19   ar
    25    14     3    1
    26    11     6    1
    27    13     8    1
    28     1     2    1
