@<TRIPOS>MOLECULE
*****
 25 28 0 0 0
SMALL
GASTEIGER

@<TRIPOS>ATOM
      1 C         139.9515  140.9137  168.1966 C.ar    1  UNL1        0.2212
      2 N         140.0920  141.8660  167.0462 N.ar    1  UNL1       -0.1987
      3 C         139.5607  141.4923  165.6941 C.ar    1  UNL1        0.1360
      4 C         138.8890  140.1663  165.4924 C.ar    1  UNL1        0.0575
      5 C         138.7486  139.2140  166.6428 C.ar    1  UNL1        0.1582
      6 N         139.2798  139.5877  167.9949 N.ar    1  UNL1       -0.2096
      7 N         139.7012  142.4446  164.5437 N.pl3   1  UNL1       -0.2931
      8 C         139.6085  142.0899  163.0892 C.3     1  UNL1        0.0922
      9 C         139.8090  143.3448  162.2923 C.3     1  UNL1        0.0219
     10 C         140.0389  144.7347  161.7771 C.3     1  UNL1        0.0089
     11 C         140.0256  144.4752  163.2544 C.3     1  UNL1        0.0219
     12 C         139.9589  143.9187  164.6458 C.3     1  UNL1        0.0922
     13 C         140.1794  145.6870  160.6267 C.3     1  UNL1        0.0418
     14 C         141.0027  145.3045  159.4327 C.2     1  UNL1        0.0503
     15 O         142.3061  144.5860  159.6194 O.co2   1  UNL1       -0.5492
     16 O         140.5226  145.6405  158.0518 O.co2   1  UNL1       -0.5492
     17 C         140.4658  144.0259  169.9752 C.3     1  UNL1        0.0216
     18 C         140.6958  142.5765  170.2854 C.3     1  UNL1        0.0773
     19 C         141.2340  141.8159  171.4608 C.3     1  UNL1        0.0413
     20 C         141.0210  140.5267  170.7242 C.3     1  UNL1        0.0952
     21 N         140.4828  141.2874  169.5487 N.pl3   1  UNL1       -0.2797
     22 C         138.0769  137.8881  166.4411 C.3     1  UNL1        0.4350
     23 F         137.4052  136.5621  166.2395 F       1  UNL1       -0.1644
     24 F         139.1261  137.5091  165.4383 F       1  UNL1       -0.1644
     25 F         137.0277  138.2670  167.4439 F       1  UNL1       -0.1644
@<TRIPOS>UNITY_ATOM_ATTR
15 1
charge -1
@<TRIPOS>BOND
     1    18    17    1
     2    18    19    1
     3    19    20    1
     4    20    21    1
     5    21     1    1
     6     1     2   ar
     7     2     3   ar
     8     3     7    1
     9     7     8    1
    10     9     8    1
    11     9    10    1
    12    10    13    1
    13    13    14    1
    14    14    15   ar
    15    14    16   ar
    16    10    11    1
    17    11    12    1
    18     3     4   ar
    19     4     5   ar
    20     5    22    1
    21    22    23    1
    22    22    24    1
    23    22    25    1
    24     5     6   ar
    25    21    18    1
    26     6     1   ar
    27    12     7    1
    28    11     9    1
@<TRIPOS>MOLECULE
*****
 25 28 0 0 0
SMALL
GASTEIGER

@<TRIPOS>ATOM
      1 C         142.3289  142.4326  161.1157 C.ar    1  UNL1        0.2212
      2 N         141.9078  142.7768  162.5136 N.ar    1  UNL1       -0.1987
      3 C         142.1190  141.7913  163.6245 C.ar    1  UNL1        0.1360
      4 C         142.7513  140.4617  163.3375 C.ar    1  UNL1        0.0575
      5 C         143.1723  140.1175  161.9396 C.ar    1  UNL1        0.1582
      6 N         142.9611  141.1030  160.8287 N.ar    1  UNL1       -0.2096
      7 N         141.6980  142.1354  165.0225 N.pl3   1  UNL1       -0.2931
      8 C         140.4234  142.8214  165.4158 C.3     1  UNL1        0.0922
      9 C         140.4153  142.9639  166.9090 C.3     1  UNL1        0.0219
     10 C         140.6856  142.9629  168.3845 C.3     1  UNL1        0.0089
     11 C         141.6850  142.3659  167.4386 C.3     1  UNL1        0.0219
     12 C         142.4777  141.8539  166.2727 C.3     1  UNL1        0.0922
     13 C         140.2646  143.3070  169.7825 C.3     1  UNL1        0.0418
     14 C         139.8675  142.2188  170.7355 C.2     1  UNL1        0.0503
     15 O         138.8718  141.1791  170.3140 O.co2   1  UNL1       -0.5492
     16 O         140.4661  142.1703  172.1100 O.co2   1  UNL1       -0.5492
     17 C         140.3847  145.4613  160.7146 C.3     1  UNL1        0.0216
     18 C         141.3123  144.6727  159.8386 C.3     1  UNL1        0.0773
     19 C         141.8189  144.8119  158.4336 C.3     1  UNL1        0.0413
     20 C         142.6243  143.5573  158.5997 C.3     1  UNL1        0.0952
     21 N         142.1177  143.4181  160.0047 N.pl3   1  UNL1       -0.2797
     22 C         143.8046  138.7879  161.6525 C.3     1  UNL1        0.4350
     23 F         144.4368  137.4583  161.3655 F       1  UNL1       -0.1644
     24 F         143.3030  138.2658  162.9662 F       1  UNL1       -0.1644
     25 F         144.3062  139.3100  160.3389 F       1  UNL1       -0.1644
@<TRIPOS>UNITY_ATOM_ATTR
15 1
charge -1
@<TRIPOS>BOND
     1    18    17    1
     2    18    19    1
     3    19    20    1
     4    20    21    1
     5    21     1    1
     6     1     2   ar
     7     2     3   ar
     8     3     7    1
     9     7     8    1
    10     9     8    1
    11     9    10    1
    12    10    13    1
    13    13    14    1
    14    14    15   ar
    15    14    16   ar
    16    10    11    1
    17    11    12    1
    18     3     4   ar
    19     4     5   ar
    20     5    22    1
    21    22    23    1
    22    22    24    1
    23    22    25    1
    24     5     6   ar
    25    21    18    1
    26     6     1   ar
    27    12     7    1
    28    11     9    1
@<TRIPOS>MOLECULE
*****
 25 28 0 0 0
SMALL
GASTEIGER

@<TRIPOS>ATOM
      1 C         142.3264  142.4397  161.4765 C.ar    1  UNL1        0.2212
      2 N         142.4004  142.0073  162.9108 N.ar    1  UNL1       -0.1987
      3 C         141.7125  142.8121  163.9733 C.ar    1  UNL1        0.1360
      4 C         140.9504  144.0494  163.6014 C.ar    1  UNL1        0.0575
      5 C         140.8763  144.4819  162.1670 C.ar    1  UNL1        0.1582
      6 N         141.5643  143.6771  161.1046 N.ar    1  UNL1       -0.2096
      7 N         141.7865  142.3796  165.4078 N.pl3   1  UNL1       -0.2931
      8 C         142.9493  141.6956  166.0635 C.3     1  UNL1        0.0922
      9 C         142.5922  141.4485  167.4993 C.3     1  UNL1        0.0219
     10 C         141.9645  141.3397  168.8573 C.3     1  UNL1        0.0089
     11 C         141.2087  141.9799  167.7309 C.3     1  UNL1        0.0219
     12 C         140.7108  142.5553  166.4382 C.3     1  UNL1        0.0922
     13 C         142.0385  140.9073  170.2917 C.3     1  UNL1        0.0418
     14 C         140.8034  140.9173  171.1428 C.2     1  UNL1        0.0503
     15 O         140.5421  142.0654  172.0720 O.co2   1  UNL1       -0.5492
     16 O         139.8295  139.7791  171.0646 O.co2   1  UNL1       -0.5492
     17 C         144.0092  139.2347  161.3789 C.3     1  UNL1        0.0216
     18 C         143.7114  140.3073  160.3736 C.3     1  UNL1        0.0773
     19 C         143.9873  140.4966  158.9114 C.3     1  UNL1        0.0413
     20 C         143.2903  141.8242  158.9517 C.3     1  UNL1        0.0952
     21 N         143.0144  141.6349  160.4139 N.pl3   1  UNL1       -0.2797
     22 C         140.1143  145.7192  161.7952 C.3     1  UNL1        0.4350
     23 F         139.3522  146.9565  161.4233 F       1  UNL1       -0.1644
     24 F         140.8572  145.7856  160.4937 F       1  UNL1       -0.1644
     25 F         139.3714  145.6528  163.0966 F       1  UNL1       -0.1644
@<TRIPOS>UNITY_ATOM_ATTR
15 1
charge -1
@<TRIPOS>BOND
     1    18    17    1
     2    18    19    1
     3    19    20    1
     4    20    21    1
     5    21     1    1
     6     1     2   ar
     7     2     3   ar
     8     3     7    1
     9     7     8    1
    10     9     8    1
    11     9    10    1
    12    10    13    1
    13    13    14    1
    14    14    15   ar
    15    14    16   ar
    16    10    11    1
    17    11    12    1
    18     3     4   ar
    19     4     5   ar
    20     5    22    1
    21    22    23    1
    22    22    24    1
    23    22    25    1
    24     5     6   ar
    25    21    18    1
    26     6     1   ar
    27    12     7    1
    28    11     9    1
@<TRIPOS>MOLECULE
*****
 25 28 0 0 0
SMALL
GASTEIGER

@<TRIPOS>ATOM
      1 C         138.9494  141.3863  162.8331 C.ar    1  UNL1        0.2212
      2 N         139.3050  141.9770  161.5010 N.ar    1  UNL1       -0.1987
      3 C         139.4206  143.4646  161.3470 C.ar    1  UNL1        0.1360
      4 C         139.1805  144.3615  162.5252 C.ar    1  UNL1        0.0575
      5 C         138.8248  143.7708  163.8573 C.ar    1  UNL1        0.1582
      6 N         138.7093  142.2832  164.0112 N.ar    1  UNL1       -0.2096
      7 N         139.7762  144.0554  160.0149 N.pl3   1  UNL1       -0.2931
      8 C         139.4901  143.4450  158.6749 C.3     1  UNL1        0.0922
      9 C         140.0175  144.3726  157.6208 C.3     1  UNL1        0.0219
     10 C         140.6316  145.4762  156.8114 C.3     1  UNL1        0.0089
     11 C         140.6296  145.5565  158.3092 C.3     1  UNL1        0.0219
     12 C         140.4805  145.3604  159.7889 C.3     1  UNL1        0.0922
     13 C         140.9873  146.0670  155.4793 C.3     1  UNL1        0.0418
     14 C         140.0309  146.9954  154.7912 C.2     1  UNL1        0.0503
     15 O         140.4989  147.8365  153.6408 O.co2   1  UNL1       -0.5492
     16 O         138.6065  147.0825  155.2534 O.co2   1  UNL1       -0.5492
     17 C         138.4019  139.1350  165.6162 C.3     1  UNL1        0.0216
     18 C         138.6070  138.9662  164.1399 C.3     1  UNL1        0.0773
     19 C         138.6703  137.7949  163.2050 C.3     1  UNL1        0.0413
     20 C         138.8971  138.7274  162.0522 C.3     1  UNL1        0.0952
     21 N         138.8338  139.8987  162.9871 N.pl3   1  UNL1       -0.2797
     22 C         138.5847  144.6676  165.0354 C.3     1  UNL1        0.4350
     23 F         138.3446  145.5645  166.2135 F       1  UNL1       -0.1644
     24 F         137.1386  144.2695  165.0438 F       1  UNL1       -0.1644
     25 F         140.0309  145.0658  165.0270 F       1  UNL1       -0.1644
@<TRIPOS>UNITY_ATOM_ATTR
15 1
charge -1
@<TRIPOS>BOND
     1    18    17    1
     2    18    19    1
     3    19    20    1
     4    20    21    1
     5    21     1    1
     6     1     2   ar
     7     2     3   ar
     8     3     7    1
     9     7     8    1
    10     9     8    1
    11     9    10    1
    12    10    13    1
    13    13    14    1
    14    14    15   ar
    15    14    16   ar
    16    10    11    1
    17    11    12    1
    18     3     4   ar
    19     4     5   ar
    20     5    22    1
    21    22    23    1
    22    22    24    1
    23    22    25    1
    24     5     6   ar
    25    21    18    1
    26     6     1   ar
    27    12     7    1
    28    11     9    1
@<TRIPOS>MOLECULE
*****
 25 28 0 0 0
SMALL
GASTEIGER

@<TRIPOS>ATOM
      1 C         140.6468  142.0919  164.2041 C.ar    1  UNL1        0.2212
      2 N         140.4343  142.6968  162.8480 N.ar    1  UNL1       -0.1987
      3 C         141.4407  143.6590  162.2901 C.ar    1  UNL1        0.1360
      4 C         142.6595  144.0163  163.0881 C.ar    1  UNL1        0.0575
      5 C         142.8719  143.4114  164.4442 C.ar    1  UNL1        0.1582
      6 N         141.8656  142.4492  165.0021 N.ar    1  UNL1       -0.2096
      7 N         141.2283  144.2640  160.9340 N.pl3   1  UNL1       -0.2931
      8 C         141.9509  143.8836  159.6758 C.3     1  UNL1        0.0922
      9 C         141.4252  144.7401  158.5622 C.3     1  UNL1        0.0219
     10 C         140.7174  145.7190  157.6728 C.3     1  UNL1        0.0089
     11 C         140.3776  145.6500  159.1322 C.3     1  UNL1        0.0219
     12 C         140.2559  145.3557  160.5980 C.3     1  UNL1        0.0922
     13 C         140.5050  146.3240  156.3168 C.3     1  UNL1        0.0418
     14 C         139.1451  146.8176  155.9205 C.2     1  UNL1        0.0503
     15 O         138.8066  148.2726  156.0557 O.co2   1  UNL1       -0.5492
     16 O         138.1237  145.8562  155.3889 O.co2   1  UNL1       -0.5492
     17 C         140.0167  140.6508  167.4660 C.3     1  UNL1        0.0216
     18 C         139.3795  140.5327  166.1132 C.3     1  UNL1        0.0773
     19 C         138.2173  139.7688  165.5513 C.3     1  UNL1        0.0413
     20 C         138.4782  140.3657  164.2002 C.3     1  UNL1        0.0952
     21 N         139.6404  141.1296  164.7621 N.pl3   1  UNL1       -0.2797
     22 C         144.0907  143.7687  165.2423 C.3     1  UNL1        0.4350
     23 F         145.3094  144.1260  166.0403 F       1  UNL1       -0.1644
     24 F         144.1504  145.1006  164.5548 F       1  UNL1       -0.1644
     25 F         144.0309  142.4369  165.9297 F       1  UNL1       -0.1644
@<TRIPOS>UNITY_ATOM_ATTR
15 1
charge -1
@<TRIPOS>BOND
     1    18    17    1
     2    18    19    1
     3    19    20    1
     4    20    21    1
     5    21     1    1
     6     1     2   ar
     7     2     3   ar
     8     3     7    1
     9     7     8    1
    10     9     8    1
    11     9    10    1
    12    10    13    1
    13    13    14    1
    14    14    15   ar
    15    14    16   ar
    16    10    11    1
    17    11    12    1
    18     3     4   ar
    19     4     5   ar
    20     5    22    1
    21    22    23    1
    22    22    24    1
    23    22    25    1
    24     5     6   ar
    25    21    18    1
    26     6     1   ar
    27    12     7    1
    28    11     9    1
@<TRIPOS>MOLECULE
*****
 25 28 0 0 0
SMALL
GASTEIGER

@<TRIPOS>ATOM
      1 C         142.9348  137.8177  157.6152 C.ar    1  UNL1        0.2212
      2 N         142.1595  137.5395  158.8688 N.ar    1  UNL1       -0.1987
      3 C         142.0998  138.5694  159.9577 C.ar    1  UNL1        0.1360
      4 C         142.8155  139.8773  159.7932 C.ar    1  UNL1        0.0575
      5 C         143.5908  140.1555  158.5396 C.ar    1  UNL1        0.1582
      6 N         143.6505  139.1257  157.4506 N.ar    1  UNL1       -0.2096
      7 N         141.3245  138.2912  161.2114 N.pl3   1  UNL1       -0.2931
      8 C         141.9058  138.0599  162.5746 C.3     1  UNL1        0.0922
      9 C         140.7723  137.8213  163.5276 C.3     1  UNL1        0.0219
     10 C         139.4598  137.6224  164.2261 C.3     1  UNL1        0.0089
     11 C         139.4903  137.9052  162.7533 C.3     1  UNL1        0.0219
     12 C         139.8316  138.1957  161.3218 C.3     1  UNL1        0.0922
     13 C         138.6844  137.3443  165.4796 C.3     1  UNL1        0.0418
     14 C         138.0817  138.4776  166.2557 C.2     1  UNL1        0.0503
     15 O         137.1445  138.1938  167.3919 O.co2   1  UNL1       -0.5492
     16 O         138.4163  139.8948  165.8956 O.co2   1  UNL1       -0.5492
     17 C         143.5559  134.2521  157.4940 C.3     1  UNL1        0.0216
     18 C         143.2518  135.3109  156.4760 C.3     1  UNL1        0.0773
     19 C         143.0790  135.3315  154.9861 C.3     1  UNL1        0.0413
     20 C         142.8218  136.8084  155.0363 C.3     1  UNL1        0.0952
     21 N         142.9946  136.7879  156.5262 N.pl3   1  UNL1       -0.2797
     22 C         144.3064  141.4634  158.3750 C.3     1  UNL1        0.4350
     23 F         145.0221  142.7714  158.2104 F       1  UNL1       -0.1644
     24 F         143.4927  142.0490  159.4908 F       1  UNL1       -0.1644
     25 F         145.1201  140.8778  157.2593 F       1  UNL1       -0.1644
@<TRIPOS>UNITY_ATOM_ATTR
15 1
charge -1
@<TRIPOS>BOND
     1    18    17    1
     2    18    19    1
     3    19    20    1
     4    20    21    1
     5    21     1    1
     6     1     2   ar
     7     2     3   ar
     8     3     7    1
     9     7     8    1
    10     9     8    1
    11     9    10    1
    12    10    13    1
    13    13    14    1
    14    14    15   ar
    15    14    16   ar
    16    10    11    1
    17    11    12    1
    18     3     4   ar
    19     4     5   ar
    20     5    22    1
    21    22    23    1
    22    22    24    1
    23    22    25    1
    24     5     6   ar
    25    21    18    1
    26     6     1   ar
    27    12     7    1
    28    11     9    1
@<TRIPOS>MOLECULE
*****
 25 28 0 0 0
SMALL
GASTEIGER

@<TRIPOS>ATOM
      1 C         140.7679  141.0576  161.0039 C.ar    1  UNL1        0.2212
      2 N         140.5796  141.5714  162.4005 N.ar    1  UNL1       -0.1987
      3 C         141.3744  140.9844  163.5291 C.ar    1  UNL1        0.1360
      4 C         142.3574  139.8835  163.2611 C.ar    1  UNL1        0.0575
      5 C         142.5457  139.3697  161.8645 C.ar    1  UNL1        0.1582
      6 N         141.7510  139.9567  160.7360 N.ar    1  UNL1       -0.2096
      7 N         141.1861  141.4982  164.9258 N.pl3   1  UNL1       -0.2931
      8 C         142.2522  141.6112  165.9749 C.3     1  UNL1        0.0922
      9 C         141.6236  142.1720  167.2160 C.3     1  UNL1        0.0219
     10 C         140.7332  142.7338  168.2845 C.3     1  UNL1        0.0089
     11 C         140.1690  142.4056  166.9339 C.3     1  UNL1        0.0219
     12 C         139.8986  141.9892  165.5185 C.3     1  UNL1        0.0922
     13 C         140.5449  143.2476  169.6811 C.3     1  UNL1        0.0418
     14 C         139.9997  142.3427  170.7460 C.2     1  UNL1        0.0503
     15 O         138.8238  141.4598  170.4502 O.co2   1  UNL1       -0.5492
     16 O         140.6306  142.3208  172.1067 O.co2   1  UNL1       -0.5492
     17 C         139.2397  139.7454  157.9945 C.3     1  UNL1        0.0216
     18 C         139.3402  141.1010  158.6287 C.3     1  UNL1        0.0773
     19 C         138.8492  142.4746  158.2791 C.3     1  UNL1        0.0413
     20 C         139.4822  143.0182  159.5256 C.3     1  UNL1        0.0952
     21 N         139.9732  141.6446  159.8753 N.pl3   1  UNL1       -0.2797
     22 C         143.5287  138.2689  161.5965 C.3     1  UNL1        0.4350
     23 F         144.5118  137.1681  161.3286 F       1  UNL1       -0.1644
     24 F         142.6344  137.7328  160.5183 F       1  UNL1       -0.1644
     25 F         144.4231  138.8050  162.6748 F       1  UNL1       -0.1644
@<TRIPOS>UNITY_ATOM_ATTR
15 1
charge -1
@<TRIPOS>BOND
     1    18    17    1
     2    18    19    1
     3    19    20    1
     4    20    21    1
     5    21     1    1
     6     1     2   ar
     7     2     3   ar
     8     3     7    1
     9     7     8    1
    10     9     8    1
    11     9    10    1
    12    10    13    1
    13    13    14    1
    14    14    15   ar
    15    14    16   ar
    16    10    11    1
    17    11    12    1
    18     3     4   ar
    19     4     5   ar
    20     5    22    1
    21    22    23    1
    22    22    24    1
    23    22    25    1
    24     5     6   ar
    25    21    18    1
    26     6     1   ar
    27    12     7    1
    28    11     9    1
@<TRIPOS>MOLECULE
*****
 25 28 0 0 0
SMALL
GASTEIGER

@<TRIPOS>ATOM
      1 C         141.1231  141.5805  160.9708 C.ar    1  UNL1        0.2212
      2 N         141.6782  141.8190  162.3437 N.ar    1  UNL1       -0.1987
      3 C         141.1038  141.0899  163.5219 C.ar    1  UNL1        0.1360
      4 C         139.9743  140.1222  163.3273 C.ar    1  UNL1        0.0575
      5 C         139.4192  139.8837  161.9543 C.ar    1  UNL1        0.1582
      6 N         139.9937  140.6128  160.7761 N.ar    1  UNL1       -0.2096
      7 N         141.6588  141.3284  164.8950 N.pl3   1  UNL1       -0.2931
      8 C         142.7499  142.2948  165.2493 C.3     1  UNL1        0.0922
      9 C         142.9856  142.2060  166.7280 C.3     1  UNL1        0.0219
     10 C         142.9935  141.9019  168.1969 C.3     1  UNL1        0.0089
     11 C         142.0401  141.1847  167.2876 C.3     1  UNL1        0.0219
     12 C         141.2202  140.6423  166.1547 C.3     1  UNL1        0.0922
     13 C         143.5485  142.1403  169.5698 C.3     1  UNL1        0.0418
     14 C         142.8535  143.0837  170.5063 C.2     1  UNL1        0.0503
     15 O         141.3849  142.9314  170.7711 O.co2   1  UNL1       -0.5492
     16 O         143.6271  144.1794  171.1779 O.co2   1  UNL1       -0.5492
     17 C         141.2202  145.0379  159.8978 C.3     1  UNL1        0.0216
     18 C         141.7377  143.7418  159.3480 C.3     1  UNL1        0.0773
     19 C         142.5098  143.3409  158.1261 C.3     1  UNL1        0.0413
     20 C         142.4697  141.9088  158.5705 C.3     1  UNL1        0.0952
     21 N         141.6975  142.3097  159.7924 N.pl3   1  UNL1       -0.2797
     22 C         138.2898  138.9160  161.7597 C.3     1  UNL1        0.4350
     23 F         137.1603  137.9483  161.5650 F       1  UNL1       -0.1644
     24 F         138.3766  138.5238  163.2049 F       1  UNL1       -0.1644
     25 F         138.2029  139.3081  160.3144 F       1  UNL1       -0.1644
@<TRIPOS>UNITY_ATOM_ATTR
15 1
charge -1
@<TRIPOS>BOND
     1    18    17    1
     2    18    19    1
     3    19    20    1
     4    20    21    1
     5    21     1    1
     6     1     2   ar
     7     2     3   ar
     8     3     7    1
     9     7     8    1
    10     9     8    1
    11     9    10    1
    12    10    13    1
    13    13    14    1
    14    14    15   ar
    15    14    16   ar
    16    10    11    1
    17    11    12    1
    18     3     4   ar
    19     4     5   ar
    20     5    22    1
    21    22    23    1
    22    22    24    1
    23    22    25    1
    24     5     6   ar
    25    21    18    1
    26     6     1   ar
    27    12     7    1
    28    11     9    1
@<TRIPOS>MOLECULE
*****
 25 28 0 0 0
SMALL
GASTEIGER

@<TRIPOS>ATOM
      1 C         139.9004  138.5885  158.0116 C.ar    1  UNL1        0.2212
      2 N         139.7616  138.4877  159.5017 N.ar    1  UNL1       -0.1987
      3 C         138.8365  139.4146  160.2331 C.ar    1  UNL1        0.1360
      4 C         138.0501  140.4421  159.4744 C.ar    1  UNL1        0.0575
      5 C         138.1888  140.5429  157.9842 C.ar    1  UNL1        0.1582
      6 N         139.1140  139.6160  157.2528 N.ar    1  UNL1       -0.2096
      7 N         138.6977  139.3139  161.7233 N.pl3   1  UNL1       -0.2931
      8 C         139.1804  138.1806  162.5792 C.3     1  UNL1        0.0922
      9 C         138.8328  138.4951  164.0041 C.3     1  UNL1        0.0219
     10 C         138.3638  139.0718  165.3070 C.3     1  UNL1        0.0089
     11 C         138.1353  139.8228  164.0288 C.3     1  UNL1        0.0219
     12 C         138.0517  140.3288  162.6192 C.3     1  UNL1        0.0922
     13 C         138.2250  138.9712  166.7971 C.3     1  UNL1        0.0418
     14 C         139.2251  139.6430  167.6907 C.2     1  UNL1        0.0503
     15 O         138.9121  139.8523  169.1426 O.co2   1  UNL1       -0.5492
     16 O         140.5382  140.1056  167.1321 O.co2   1  UNL1       -0.5492
     17 C         139.6828  136.6195  154.9802 C.3     1  UNL1        0.0216
     18 C         140.7354  136.8460  156.0244 C.3     1  UNL1        0.0773
     19 C         142.1340  136.3508  156.2456 C.3     1  UNL1        0.0413
     20 C         142.2242  137.1664  157.5013 C.3     1  UNL1        0.0952
     21 N         140.8256  137.6616  157.2801 N.pl3   1  UNL1       -0.2797
     22 C         137.4024  141.5704  157.2255 C.3     1  UNL1        0.4350
     23 F         136.6160  142.5980  156.4668 F       1  UNL1       -0.1644
     24 F         136.2153  140.6536  157.2142 F       1  UNL1       -0.1644
     25 F         138.5896  142.4873  157.2368 F       1  UNL1       -0.1644
@<TRIPOS>UNITY_ATOM_ATTR
15 1
charge -1
@<TRIPOS>BOND
     1    18    17    1
     2    18    19    1
     3    19    20    1
     4    20    21    1
     5    21     1    1
     6     1     2   ar
     7     2     3   ar
     8     3     7    1
     9     7     8    1
    10     9     8    1
    11     9    10    1
    12    10    13    1
    13    13    14    1
    14    14    15   ar
    15    14    16   ar
    16    10    11    1
    17    11    12    1
    18     3     4   ar
    19     4     5   ar
    20     5    22    1
    21    22    23    1
    22    22    24    1
    23    22    25    1
    24     5     6   ar
    25    21    18    1
    26     6     1   ar
    27    12     7    1
    28    11     9    1
