@<TRIPOS>MOLECULE
*****
 32 35 0 0 0
SMALL
GASTEIGER

@<TRIPOS>ATOM
      1 N         141.6370  142.2998  168.3741 N.3     1  UNL1       -0.2713
      2 C         141.4139  143.1809  169.5674 C.3     1  UNL1        0.0614
      3 C         142.6601  143.1557  170.4018 C.3     1  UNL1        0.0175
      4 C         143.6534  142.2589  169.7242 C.3     1  UNL1        0.0175
      5 C         143.0211  141.7300  168.4710 C.3     1  UNL1        0.0614
      6 C         142.1468  141.3630  167.2963 C.3     1  UNL1        0.0595
      7 C         140.7927  142.0072  167.3344 C.3     1  UNL1        0.1686
      8 C         140.4262  142.9161  168.4699 C.3     1  UNL1        0.0595
      9 C         140.6493  142.0350  167.2766 C.3     1  UNL1        0.0991
     10 C         140.5831  144.6657  163.6263 C.ar    1  UNL1        0.0013
     11 C         141.7251  143.7187  163.8477 C.ar    1  UNL1       -0.0028
     12 C         141.7472  142.8419  165.0645 C.ar    1  UNL1       -0.0032
     13 C         140.6272  142.9119  166.0598 C.ar    1  UNL1       -0.0062
     14 C         139.4852  143.8588  165.8384 C.ar    1  UNL1       -0.0032
     15 C         139.4630  144.7357  164.6216 C.ar    1  UNL1       -0.0028
     16 C         140.5610  145.5425  162.4095 C.3     1  UNL1        0.1772
     17 C         140.1432  144.3329  159.6962 C.3     1  UNL1        0.1764
     18 S         140.3521  144.9377  161.0528 S.O2    1  UNL1       -0.0040
     19 O         138.9015  144.7261  161.3705 O.2     1  UNL1       -0.1726
     20 O         141.8027  145.1493  160.7351 O.2     1  UNL1       -0.1726
     21 O         139.8050  141.7423  166.2368 O.3     1  UNL1       -0.4791
     22 C         139.3599  140.3387  165.9510 C.ar    1  UNL1        0.1385
     23 C         138.5600  139.5833  166.9705 C.ar    1  UNL1        0.0369
     24 C         138.1149  138.1797  166.6847 C.ar    1  UNL1        0.0033
     25 C         138.4697  137.5315  165.3794 C.ar    1  UNL1        0.0047
     26 C         139.2697  138.2869  164.3599 C.ar    1  UNL1        0.0561
     27 C         139.7148  139.6905  164.6457 C.ar    1  UNL1        0.0414
     28 C         139.6245  137.6386  163.0546 C.2     1  UNL1        0.2428
     29 N         138.6527  137.6710  161.9124 N.am    1  UNL1       -0.3253
     30 O         140.9513  136.9579  162.8914 O.2     1  UNL1       -0.2704
     31 H         137.7820  138.1178  162.0195 H       1  UNL1        0.1453
     32 H         138.8856  137.2456  161.0557 H       1  UNL1        0.1453
@<TRIPOS>BOND
     1    17    18    1
     2    18    19    2
     3    18    20    2
     4    18    16    1
     5    16    10    1
     6    10    11   ar
     7    11    12   ar
     8    12    13   ar
     9    13     9    1
    10     9     1    1
    11     1     2    1
    12     2     3    1
    13     3     4    1
    14     5     4    1
    15     5     6    1
    16     6     7    1
    17     7    21    1
    18    21    22    1
    19    22    23   ar
    20    23    24   ar
    21    24    25   ar
    22    25    26   ar
    23    26    28    1
    24    28    29   am
    25    28    30    2
    26    26    27   ar
    27     7     8    1
    28    13    14   ar
    29    14    15   ar
    30    15    10   ar
    31     5     1    1
    32    27    22   ar
    33     8     2    1
    34    29    31    1
    35    29    32    1
@<TRIPOS>MOLECULE
*****
 32 35 0 0 0
SMALL
GASTEIGER

@<TRIPOS>ATOM
      1 N         140.2699  139.3033  165.2936 N.3     1  UNL1       -0.2713
      2 C         138.8705  138.7743  165.4016 C.3     1  UNL1        0.0614
      3 C         138.8879  137.3307  164.9945 C.3     1  UNL1        0.0175
      4 C         140.2982  136.9675  164.6350 C.3     1  UNL1        0.0175
      5 C         141.1523  138.1867  164.8199 C.3     1  UNL1        0.0614
      6 C         141.7529  139.5451  165.0901 C.3     1  UNL1        0.0595
      7 C         140.7515  140.5596  165.5570 C.3     1  UNL1        0.1686
      8 C         139.3103  140.1742  165.7127 C.3     1  UNL1        0.0595
      9 C         140.7098  140.7032  165.6048 C.3     1  UNL1        0.0991
     10 C         140.4175  143.9057  162.4570 C.ar    1  UNL1        0.0013
     11 C         141.5466  142.9189  162.4205 C.ar    1  UNL1       -0.0028
     12 C         141.6440  141.8515  163.4697 C.ar    1  UNL1       -0.0032
     13 C         140.6123  141.7707  164.5555 C.ar    1  UNL1       -0.0062
     14 C         139.4832  142.7575  164.5922 C.ar    1  UNL1       -0.0032
     15 C         139.3857  143.8250  163.5429 C.ar    1  UNL1       -0.0028
     16 C         140.3200  144.9732  161.4078 C.3     1  UNL1        0.1772
     17 C         140.5718  144.2523  158.5066 C.3     1  UNL1        0.1764
     18 S         140.4459  144.6128  159.9572 S.O2    1  UNL1       -0.0040
     19 O         141.7481  145.3538  159.8861 O.2     1  UNL1       -0.1726
     20 O         139.1437  143.8717  160.0283 O.2     1  UNL1       -0.1726
     21 O         141.1914  141.9596  165.8682 O.3     1  UNL1       -0.4791
     22 C         141.5768  142.3306  167.2695 C.ar    1  UNL1        0.1385
     23 C         142.9691  142.0641  167.7600 C.ar    1  UNL1        0.0369
     24 C         143.3545  142.4351  169.1612 C.ar    1  UNL1        0.0033
     25 C         142.3477  143.0726  170.0722 C.ar    1  UNL1        0.0047
     26 C         140.9554  143.3390  169.5818 C.ar    1  UNL1        0.0561
     27 C         140.5700  142.9680  168.1804 C.ar    1  UNL1        0.0414
     28 C         139.9485  143.9765  170.4927 C.2     1  UNL1        0.2428
     29 N         139.0803  143.1209  171.3669 N.am    1  UNL1       -0.3253
     30 O         139.8098  145.4697  170.5295 O.2     1  UNL1       -0.2704
     31 H         139.1714  142.1409  171.3428 H       1  UNL1        0.1453
     32 H         138.4195  143.5393  171.9648 H       1  UNL1        0.1453
@<TRIPOS>BOND
     1    17    18    1
     2    18    19    2
     3    18    20    2
     4    18    16    1
     5    16    10    1
     6    10    11   ar
     7    11    12   ar
     8    12    13   ar
     9    13     9    1
    10     9     1    1
    11     1     2    1
    12     2     3    1
    13     3     4    1
    14     5     4    1
    15     5     6    1
    16     6     7    1
    17     7    21    1
    18    21    22    1
    19    22    23   ar
    20    23    24   ar
    21    24    25   ar
    22    25    26   ar
    23    26    28    1
    24    28    29   am
    25    28    30    2
    26    26    27   ar
    27     7     8    1
    28    13    14   ar
    29    14    15   ar
    30    15    10   ar
    31     5     1    1
    32    27    22   ar
    33     8     2    1
    34    29    31    1
    35    29    32    1
@<TRIPOS>MOLECULE
*****
 32 35 0 0 0
SMALL
GASTEIGER

@<TRIPOS>ATOM
      1 N         140.2752  139.1976  165.2821 N.3     1  UNL1       -0.2713
      2 C         141.3993  138.3681  164.7358 C.3     1  UNL1        0.0614
      3 C         140.8107  137.1215  164.1447 C.3     1  UNL1        0.0175
      4 C         139.3229  137.1804  164.3256 C.3     1  UNL1        0.0175
      5 C         138.9919  138.4635  165.0286 C.3     1  UNL1        0.0614
      6 C         138.9577  139.8001  165.7296 C.3     1  UNL1        0.0595
      7 C         140.3139  140.4141  165.9131 C.3     1  UNL1        0.1686
      8 C         141.5348  139.6981  165.4162 C.3     1  UNL1        0.0595
      9 C         140.4107  140.5275  165.9625 C.3     1  UNL1        0.0991
     10 C         140.6799  144.2917  163.5114 C.ar    1  UNL1        0.0013
     11 C         141.9273  143.6582  164.0525 C.ar    1  UNL1       -0.0028
     12 C         141.8375  142.4036  164.8695 C.ar    1  UNL1       -0.0032
     13 C         140.5004  141.7823  165.1454 C.ar    1  UNL1       -0.0062
     14 C         139.2531  142.4156  164.6043 C.ar    1  UNL1       -0.0032
     15 C         139.3427  143.6704  163.7873 C.ar    1  UNL1       -0.0028
     16 C         140.7697  145.5465  162.6943 C.3     1  UNL1        0.1772
     17 C         140.2730  145.4497  159.7374 C.3     1  UNL1        0.1764
     18 S         140.5214  145.4981  161.2158 S.O2    1  UNL1       -0.0040
     19 O         141.8380  144.8074  161.0173 O.2     1  UNL1       -0.1726
     20 O         139.2047  146.1888  161.4144 O.2     1  UNL1       -0.1726
     21 O         140.4494  141.7441  166.5934 O.3     1  UNL1       -0.4791
     22 C         140.7599  141.8083  168.0596 C.ar    1  UNL1        0.1385
     23 C         139.8084  141.2127  169.0545 C.ar    1  UNL1        0.0369
     24 C         140.1189  141.2769  170.5205 C.ar    1  UNL1        0.0033
     25 C         141.3809  141.9368  170.9917 C.ar    1  UNL1        0.0047
     26 C         142.3323  142.5325  169.9968 C.ar    1  UNL1        0.0561
     27 C         142.0218  142.4682  168.5306 C.ar    1  UNL1        0.0414
     28 C         143.5942  143.1924  170.4679 C.2     1  UNL1        0.2428
     29 N         143.5289  144.3073  171.4693 N.am    1  UNL1       -0.3253
     30 O         144.9217  142.7374  169.9377 O.2     1  UNL1       -0.2704
     31 H         142.6577  144.6059  171.8174 H       1  UNL1        0.1453
     32 H         144.3571  144.7404  171.7786 H       1  UNL1        0.1453
@<TRIPOS>BOND
     1    17    18    1
     2    18    19    2
     3    18    20    2
     4    18    16    1
     5    16    10    1
     6    10    11   ar
     7    11    12   ar
     8    12    13   ar
     9    13     9    1
    10     9     1    1
    11     1     2    1
    12     2     3    1
    13     3     4    1
    14     5     4    1
    15     5     6    1
    16     6     7    1
    17     7    21    1
    18    21    22    1
    19    22    23   ar
    20    23    24   ar
    21    24    25   ar
    22    25    26   ar
    23    26    28    1
    24    28    29   am
    25    28    30    2
    26    26    27   ar
    27     7     8    1
    28    13    14   ar
    29    14    15   ar
    30    15    10   ar
    31     5     1    1
    32    27    22   ar
    33     8     2    1
    34    29    31    1
    35    29    32    1
@<TRIPOS>MOLECULE
*****
 32 35 0 0 0
SMALL
GASTEIGER

@<TRIPOS>ATOM
      1 N         141.2048  140.8193  168.7283 N.3     1  UNL1       -0.2713
      2 C         141.6214  139.8447  169.7898 C.3     1  UNL1        0.0614
      3 C         140.8764  140.1823  171.0472 C.3     1  UNL1        0.0175
      4 C         139.9994  141.3655  170.7629 C.3     1  UNL1        0.0175
      5 C         140.2023  141.7592  169.3297 C.3     1  UNL1        0.0614
      6 C         140.6006  141.9235  167.8829 C.3     1  UNL1        0.0595
      7 C         141.6094  140.9136  167.4219 C.3     1  UNL1        0.1686
      8 C         142.1197  139.8742  168.3753 C.3     1  UNL1        0.0595
      9 C         141.7031  140.8487  167.3139 C.3     1  UNL1        0.0991
     10 C         139.6258  138.4207  164.1454 C.ar    1  UNL1        0.0013
     11 C         140.9743  137.9993  164.6494 C.ar    1  UNL1       -0.0028
     12 C         141.6667  138.8086  165.7055 C.ar    1  UNL1       -0.0032
     13 C         141.0107  140.0394  166.2577 C.ar    1  UNL1       -0.0062
     14 C         139.6623  140.4608  165.7537 C.ar    1  UNL1       -0.0032
     15 C         138.9697  139.6515  164.6976 C.ar    1  UNL1       -0.0028
     16 C         138.9334  137.6113  163.0892 C.3     1  UNL1        0.1772
     17 C         138.9986  138.5097  160.2277 C.3     1  UNL1        0.1764
     18 S         138.9660  138.0605  161.6584 S.O2    1  UNL1       -0.0040
     19 O         137.5190  138.4459  161.7465 O.2     1  UNL1       -0.1726
     20 O         140.4130  137.6752  161.5704 O.2     1  UNL1       -0.1726
     21 O         142.1077  140.9431  166.0073 O.3     1  UNL1       -0.4791
     22 C         142.7202  142.1955  165.4539 C.ar    1  UNL1        0.1385
     23 C         144.0021  142.7209  166.0287 C.ar    1  UNL1        0.0369
     24 C         144.6145  143.9733  165.4753 C.ar    1  UNL1        0.0033
     25 C         143.9450  144.7004  164.3470 C.ar    1  UNL1        0.0047
     26 C         142.6631  144.1750  163.7721 C.ar    1  UNL1        0.0561
     27 C         142.0506  142.9225  164.3256 C.ar    1  UNL1        0.0414
     28 C         141.9936  144.9021  162.6438 C.2     1  UNL1        0.2428
     29 N         140.9486  145.9382  162.9345 N.am    1  UNL1       -0.3253
     30 O         142.3690  144.5930  161.2248 O.2     1  UNL1       -0.2704
     31 H         140.7022  146.1411  163.8658 H       1  UNL1        0.1453
     32 H         140.5092  146.4154  162.1939 H       1  UNL1        0.1453
@<TRIPOS>BOND
     1    17    18    1
     2    18    19    2
     3    18    20    2
     4    18    16    1
     5    16    10    1
     6    10    11   ar
     7    11    12   ar
     8    12    13   ar
     9    13     9    1
    10     9     1    1
    11     1     2    1
    12     2     3    1
    13     3     4    1
    14     5     4    1
    15     5     6    1
    16     6     7    1
    17     7    21    1
    18    21    22    1
    19    22    23   ar
    20    23    24   ar
    21    24    25   ar
    22    25    26   ar
    23    26    28    1
    24    28    29   am
    25    28    30    2
    26    26    27   ar
    27     7     8    1
    28    13    14   ar
    29    14    15   ar
    30    15    10   ar
    31     5     1    1
    32    27    22   ar
    33     8     2    1
    34    29    31    1
    35    29    32    1
@<TRIPOS>MOLECULE
*****
 32 35 0 0 0
SMALL
GASTEIGER

@<TRIPOS>ATOM
      1 N         139.2225  142.5084  164.8498 N.3     1  UNL1       -0.2713
      2 C         137.8232  142.7014  164.3452 C.3     1  UNL1        0.0614
      3 C         137.6019  144.1712  164.1431 C.3     1  UNL1        0.0175
      4 C         138.8645  144.8865  164.5228 C.3     1  UNL1        0.0175
      5 C         139.8661  143.8588  164.9596 C.3     1  UNL1        0.0614
      6 C         140.6529  142.6275  165.3387 C.3     1  UNL1        0.0595
      7 C         139.8809  141.3515  165.1778 C.3     1  UNL1        0.1686
      8 C         138.4660  141.3884  164.6811 C.3     1  UNL1        0.0595
      9 C         139.8654  141.1954  165.1857 C.3     1  UNL1        0.0991
     10 C         141.8389  138.7644  161.9538 C.ar    1  UNL1        0.0013
     11 C         142.4689  140.0430  162.4210 C.ar    1  UNL1       -0.0028
     12 C         141.8111  140.8533  163.4983 C.ar    1  UNL1       -0.0032
     13 C         140.5232  140.3850  164.1084 C.ar    1  UNL1       -0.0062
     14 C         139.8932  139.1065  163.6412 C.ar    1  UNL1       -0.0032
     15 C         140.5510  138.2961  162.5639 C.ar    1  UNL1       -0.0028
     16 C         142.4968  137.9540  160.8765 C.3     1  UNL1        0.1772
     17 C         142.9625  139.1565  158.1678 C.3     1  UNL1        0.1764
     18 S         142.7296  138.5553  159.5222 S.O2    1  UNL1       -0.0040
     19 O         144.1590  138.8255  159.8879 O.2     1  UNL1       -0.1726
     20 O         141.3002  138.2850  159.1564 O.2     1  UNL1       -0.1726
     21 O         140.5238  140.0385  165.5137 O.3     1  UNL1       -0.4791
     22 C         141.0599  139.7972  166.8938 C.ar    1  UNL1        0.1385
     23 C         142.4417  139.2426  167.0753 C.ar    1  UNL1        0.0369
     24 C         142.9777  139.0013  168.4552 C.ar    1  UNL1        0.0033
     25 C         142.1319  139.3146  169.6537 C.ar    1  UNL1        0.0047
     26 C         140.7501  139.8691  169.4722 C.ar    1  UNL1        0.0561
     27 C         140.2141  140.1104  168.0922 C.ar    1  UNL1        0.0414
     28 C         139.9043  140.1824  170.6708 C.2     1  UNL1        0.2428
     29 N         138.4455  139.8332  170.6712 N.am    1  UNL1       -0.3253
     30 O         140.5173  140.8448  171.8689 O.2     1  UNL1       -0.2704
     31 H         138.0431  139.3984  169.8849 H       1  UNL1        0.1453
     32 H         137.8904  140.0388  171.4579 H       1  UNL1        0.1453
@<TRIPOS>BOND
     1    17    18    1
     2    18    19    2
     3    18    20    2
     4    18    16    1
     5    16    10    1
     6    10    11   ar
     7    11    12   ar
     8    12    13   ar
     9    13     9    1
    10     9     1    1
    11     1     2    1
    12     2     3    1
    13     3     4    1
    14     5     4    1
    15     5     6    1
    16     6     7    1
    17     7    21    1
    18    21    22    1
    19    22    23   ar
    20    23    24   ar
    21    24    25   ar
    22    25    26   ar
    23    26    28    1
    24    28    29   am
    25    28    30    2
    26    26    27   ar
    27     7     8    1
    28    13    14   ar
    29    14    15   ar
    30    15    10   ar
    31     5     1    1
    32    27    22   ar
    33     8     2    1
    34    29    31    1
    35    29    32    1
@<TRIPOS>MOLECULE
*****
 32 35 0 0 0
SMALL
GASTEIGER

@<TRIPOS>ATOM
      1 N         141.7764  142.3078  168.2754 N.3     1  UNL1       -0.2713
      2 C         143.1944  141.8485  168.4440 C.3     1  UNL1        0.0614
      3 C         143.6808  142.3264  169.7800 C.3     1  UNL1        0.0175
      4 C         142.5634  143.0811  170.4372 C.3     1  UNL1        0.0175
      5 C         141.3865  143.0697  169.5073 C.3     1  UNL1        0.0614
      6 C         140.3846  142.8984  168.3910 C.3     1  UNL1        0.0595
      7 C         140.9150  142.1162  167.2262 C.3     1  UNL1        0.1686
      8 C         142.3199  141.5912  167.2527 C.3     1  UNL1        0.0595
      9 C         140.9019  142.0505  167.0842 C.3     1  UNL1        0.0991
     10 C         140.9334  144.9106  163.6102 C.ar    1  UNL1        0.0013
     11 C         142.1603  144.1109  163.9344 C.ar    1  UNL1       -0.0028
     12 C         142.1498  143.1575  165.0923 C.ar    1  UNL1       -0.0032
     13 C         140.9124  143.0039  165.9261 C.ar    1  UNL1       -0.0062
     14 C         139.6855  143.8036  165.6020 C.ar    1  UNL1       -0.0032
     15 C         139.6959  144.7570  164.4440 C.ar    1  UNL1       -0.0028
     16 C         140.9439  145.8640  162.4522 C.3     1  UNL1        0.1772
     17 C         140.1753  144.9074  159.7147 C.3     1  UNL1        0.1764
     18 S         140.5596  145.3857  161.0834 S.O2    1  UNL1       -0.0040
     19 O         141.8667  144.6586  160.9705 O.2     1  UNL1       -0.1726
     20 O         139.2524  146.1127  161.1963 O.2     1  UNL1       -0.1726
     21 O         140.0405  141.8589  166.0349 O.3     1  UNL1       -0.4791
     22 C         139.6355  140.4561  165.6908 C.ar    1  UNL1        0.1385
     23 C         140.1440  139.8159  164.4333 C.ar    1  UNL1        0.0369
     24 C         139.7391  138.4132  164.0891 C.ar    1  UNL1        0.0033
     25 C         138.8256  137.6508  165.0025 C.ar    1  UNL1        0.0047
     26 C         138.3172  138.2911  166.2601 C.ar    1  UNL1        0.0561
     27 C         138.7221  139.6938  166.6042 C.ar    1  UNL1        0.0414
     28 C         137.4037  137.5287  167.1735 C.2     1  UNL1        0.2428
     29 N         137.3531  136.0311  167.1045 N.am    1  UNL1       -0.3253
     30 O         136.5409  138.2638  168.1559 O.2     1  UNL1       -0.2704
     31 H         137.9194  135.5486  166.4598 H       1  UNL1        0.1453
     32 H         136.7536  135.5307  167.7040 H       1  UNL1        0.1453
@<TRIPOS>BOND
     1    17    18    1
     2    18    19    2
     3    18    20    2
     4    18    16    1
     5    16    10    1
     6    10    11   ar
     7    11    12   ar
     8    12    13   ar
     9    13     9    1
    10     9     1    1
    11     1     2    1
    12     2     3    1
    13     3     4    1
    14     5     4    1
    15     5     6    1
    16     6     7    1
    17     7    21    1
    18    21    22    1
    19    22    23   ar
    20    23    24   ar
    21    24    25   ar
    22    25    26   ar
    23    26    28    1
    24    28    29   am
    25    28    30    2
    26    26    27   ar
    27     7     8    1
    28    13    14   ar
    29    14    15   ar
    30    15    10   ar
    31     5     1    1
    32    27    22   ar
    33     8     2    1
    34    29    31    1
    35    29    32    1
@<TRIPOS>MOLECULE
*****
 32 35 0 0 0
SMALL
GASTEIGER

@<TRIPOS>ATOM
      1 N         140.4122  139.2743  164.9258 N.3     1  UNL1       -0.2713
      2 C         139.2340  138.5708  164.3202 C.3     1  UNL1        0.0614
      3 C         139.7009  137.2399  163.8097 C.3     1  UNL1        0.0175
      4 C         141.1677  137.1209  164.0997 C.3     1  UNL1        0.0175
      5 C         141.6074  138.3782  164.7896 C.3     1  UNL1        0.0614
      6 C         141.7603  139.7253  165.4537 C.3     1  UNL1        0.0595
      7 C         140.4828  140.5088  165.5180 C.3     1  UNL1        0.1686
      8 C         139.2196  139.9315  164.9513 C.3     1  UNL1        0.0595
      9 C         140.3979  140.6350  165.5569 C.3     1  UNL1        0.0991
     10 C         140.7886  144.3101  162.9896 C.ar    1  UNL1        0.0013
     11 C         142.0163  143.6377  163.5285 C.ar    1  UNL1       -0.0028
     12 C         141.8861  142.4127  164.3842 C.ar    1  UNL1       -0.0032
     13 C         140.5281  141.8601  164.7011 C.ar    1  UNL1       -0.0062
     14 C         139.3003  142.5325  164.1623 C.ar    1  UNL1       -0.0032
     15 C         139.4305  143.7575  163.3065 C.ar    1  UNL1       -0.0028
     16 C         140.9188  145.5352  162.1339 C.3     1  UNL1        0.1772
     17 C         140.2915  145.3917  159.2037 C.3     1  UNL1        0.1764
     18 S         140.6051  145.4634  160.6688 S.O2    1  UNL1       -0.0040
     19 O         141.8891  144.7256  160.4301 O.2     1  UNL1       -0.1726
     20 O         139.3212  146.2012  160.9075 O.2     1  UNL1       -0.1726
     21 O         140.4684  141.8696  166.1491 O.3     1  UNL1       -0.4791
     22 C         140.2499  142.0088  167.6266 C.ar    1  UNL1        0.1385
     23 C         140.6080  143.2896  168.3203 C.ar    1  UNL1        0.0369
     24 C         140.3895  143.4288  169.7976 C.ar    1  UNL1        0.0033
     25 C         139.8128  142.2873  170.5814 C.ar    1  UNL1        0.0047
     26 C         139.4547  141.0065  169.8877 C.ar    1  UNL1        0.0561
     27 C         139.6733  140.8672  168.4102 C.ar    1  UNL1        0.0414
     28 C         138.8780  139.8649  170.6714 C.2     1  UNL1        0.2428
     29 N         139.7575  139.0603  171.5820 N.am    1  UNL1       -0.3253
     30 O         137.4218  139.5279  170.5446 O.2     1  UNL1       -0.2704
     31 H         140.7132  139.2815  171.6653 H       1  UNL1        0.1453
     32 H         139.3790  138.3110  172.0964 H       1  UNL1        0.1453
@<TRIPOS>BOND
     1    17    18    1
     2    18    19    2
     3    18    20    2
     4    18    16    1
     5    16    10    1
     6    10    11   ar
     7    11    12   ar
     8    12    13   ar
     9    13     9    1
    10     9     1    1
    11     1     2    1
    12     2     3    1
    13     3     4    1
    14     5     4    1
    15     5     6    1
    16     6     7    1
    17     7    21    1
    18    21    22    1
    19    22    23   ar
    20    23    24   ar
    21    24    25   ar
    22    25    26   ar
    23    26    28    1
    24    28    29   am
    25    28    30    2
    26    26    27   ar
    27     7     8    1
    28    13    14   ar
    29    14    15   ar
    30    15    10   ar
    31     5     1    1
    32    27    22   ar
    33     8     2    1
    34    29    31    1
    35    29    32    1
@<TRIPOS>MOLECULE
*****
 32 35 0 0 0
SMALL
GASTEIGER

@<TRIPOS>ATOM
      1 N         139.4313  142.9750  164.8545 N.3     1  UNL1       -0.2713
      2 C         137.9893  142.6542  164.5938 C.3     1  UNL1        0.0614
      3 C         137.3570  143.8522  163.9498 C.3     1  UNL1        0.0175
      4 C         138.4081  144.9135  163.8124 C.3     1  UNL1        0.0175
      5 C         139.6901  144.3714  164.3715 C.3     1  UNL1        0.0614
      6 C         140.8163  143.5775  164.9884 C.3     1  UNL1        0.0595
      7 C         140.4092  142.2010  165.4237 C.3     1  UNL1        0.1686
      8 C         138.9957  141.7393  165.2264 C.3     1  UNL1        0.0595
      9 C         140.4377  142.0601  165.4870 C.3     1  UNL1        0.0991
     10 C         142.6693  139.0791  162.9606 C.ar    1  UNL1        0.0013
     11 C         142.8675  140.5491  162.7371 C.ar    1  UNL1       -0.0028
     12 C         142.1236  141.5427  163.5792 C.ar    1  UNL1       -0.0032
     13 C         141.1816  141.0664  164.6449 C.ar    1  UNL1       -0.0062
     14 C         140.9834  139.5966  164.8684 C.ar    1  UNL1       -0.0032
     15 C         141.7272  138.6028  164.0263 C.ar    1  UNL1       -0.0028
     16 C         143.4132  138.0854  162.1184 C.3     1  UNL1        0.1772
     17 C         142.8821  137.9220  159.1704 C.3     1  UNL1        0.1764
     18 S         143.1476  138.0037  160.6444 S.O2    1  UNL1       -0.0040
     19 O         144.4718  138.6527  160.3699 O.2     1  UNL1       -0.1726
     20 O         141.8235  137.3548  160.9189 O.2     1  UNL1       -0.1726
     21 O         141.4157  141.2861  166.0563 O.3     1  UNL1       -0.4791
     22 C         141.8959  141.5501  167.4526 C.ar    1  UNL1        0.1385
     23 C         143.2365  142.1842  167.6774 C.ar    1  UNL1        0.0369
     24 C         143.7166  142.4483  169.0736 C.ar    1  UNL1        0.0033
     25 C         142.8562  142.0782  170.2452 C.ar    1  UNL1        0.0047
     26 C         141.5155  141.4440  170.0204 C.ar    1  UNL1        0.0561
     27 C         141.0354  141.1800  168.6241 C.ar    1  UNL1        0.0414
     28 C         140.6551  141.0739  171.1920 C.2     1  UNL1        0.2428
     29 N         140.0260  139.7139  171.2607 N.am    1  UNL1       -0.3253
     30 O         140.4237  142.0639  172.2950 O.2     1  UNL1       -0.2704
     31 H         140.1779  139.0642  170.5367 H       1  UNL1        0.1453
     32 H         139.4613  139.4711  172.0296 H       1  UNL1        0.1453
@<TRIPOS>BOND
     1    17    18    1
     2    18    19    2
     3    18    20    2
     4    18    16    1
     5    16    10    1
     6    10    11   ar
     7    11    12   ar
     8    12    13   ar
     9    13     9    1
    10     9     1    1
    11     1     2    1
    12     2     3    1
    13     3     4    1
    14     5     4    1
    15     5     6    1
    16     6     7    1
    17     7    21    1
    18    21    22    1
    19    22    23   ar
    20    23    24   ar
    21    24    25   ar
    22    25    26   ar
    23    26    28    1
    24    28    29   am
    25    28    30    2
    26    26    27   ar
    27     7     8    1
    28    13    14   ar
    29    14    15   ar
    30    15    10   ar
    31     5     1    1
    32    27    22   ar
    33     8     2    1
    34    29    31    1
    35    29    32    1
@<TRIPOS>MOLECULE
*****
 32 35 0 0 0
SMALL
GASTEIGER

@<TRIPOS>ATOM
      1 N         139.8701  142.7373  165.0617 N.3     1  UNL1       -0.2713
      2 C         138.4230  142.3923  164.8696 C.3     1  UNL1        0.0614
      3 C         137.7051  143.6332  164.4284 C.3     1  UNL1        0.0175
      4 C         138.7086  144.7453  164.3479 C.3     1  UNL1        0.0175
      5 C         140.0466  144.1916  164.7392 C.3     1  UNL1        0.0614
      6 C         141.2418  143.3748  165.1677 C.3     1  UNL1        0.0595
      7 C         140.9132  141.9400  165.4563 C.3     1  UNL1        0.1686
      8 C         139.5038  141.4487  165.3073 C.3     1  UNL1        0.0595
      9 C         140.9509  141.7938  165.4994 C.3     1  UNL1        0.0991
     10 C         143.0299  139.1937  162.4716 C.ar    1  UNL1        0.0013
     11 C         143.3645  140.6530  162.5629 C.ar    1  UNL1       -0.0028
     12 C         142.6716  141.5197  163.5721 C.ar    1  UNL1       -0.0032
     13 C         141.6439  140.9270  164.4901 C.ar    1  UNL1       -0.0062
     14 C         141.3092  139.4678  164.3989 C.ar    1  UNL1       -0.0032
     15 C         142.0021  138.6010  163.3896 C.ar    1  UNL1       -0.0028
     16 C         143.7229  138.3270  161.4624 C.3     1  UNL1        0.1772
     17 C         142.6643  138.1464  158.6612 C.3     1  UNL1        0.1764
     18 S         143.1936  138.2367  160.0618 S.O2    1  UNL1       -0.0040
     19 O         142.1930  137.2112  160.5060 O.2     1  UNL1       -0.1726
     20 O         144.1941  139.2621  159.6176 O.2     1  UNL1       -0.1726
     21 O         141.9941  140.9964  165.8940 O.3     1  UNL1       -0.4791
     22 C         142.3208  140.8543  167.3511 C.ar    1  UNL1        0.1385
     23 C         142.0020  139.5769  168.0700 C.ar    1  UNL1        0.0369
     24 C         142.3287  139.4347  169.5270 C.ar    1  UNL1        0.0033
     25 C         142.9740  140.5699  170.2652 C.ar    1  UNL1        0.0047
     26 C         143.2928  141.8472  169.5463 C.ar    1  UNL1        0.0561
     27 C         142.9661  141.9894  168.0892 C.ar    1  UNL1        0.0414
     28 C         143.9382  142.9823  170.2845 C.2     1  UNL1        0.2428
     29 N         143.1063  143.8873  171.1442 N.am    1  UNL1       -0.3253
     30 O         145.4155  143.2125  170.1631 O.2     1  UNL1       -0.2704
     31 H         142.1367  143.7363  171.2239 H       1  UNL1        0.1453
     32 H         143.5299  144.6324  171.6287 H       1  UNL1        0.1453
@<TRIPOS>BOND
     1    17    18    1
     2    18    19    2
     3    18    20    2
     4    18    16    1
     5    16    10    1
     6    10    11   ar
     7    11    12   ar
     8    12    13   ar
     9    13     9    1
    10     9     1    1
    11     1     2    1
    12     2     3    1
    13     3     4    1
    14     5     4    1
    15     5     6    1
    16     6     7    1
    17     7    21    1
    18    21    22    1
    19    22    23   ar
    20    23    24   ar
    21    24    25   ar
    22    25    26   ar
    23    26    28    1
    24    28    29   am
    25    28    30    2
    26    26    27   ar
    27     7     8    1
    28    13    14   ar
    29    14    15   ar
    30    15    10   ar
    31     5     1    1
    32    27    22   ar
    33     8     2    1
    34    29    31    1
    35    29    32    1
