@<TRIPOS>MOLECULE
*****
 28 30 0 0 0
SMALL
GASTEIGER

@<TRIPOS>ATOM
      1 C         138.7212  138.6375  163.3481 C.ar    1  UNL1        0.1105
      2 C         138.9559  137.4667  164.2558 C.ar    1  UNL1        0.0219
      3 C         138.8354  137.6335  165.7416 C.ar    1  UNL1        0.0382
      4 C         138.4802  138.9713  166.3197 C.ar    1  UNL1        0.1386
      5 C         138.2454  140.1422  165.4120 C.ar    1  UNL1        0.0382
      6 C         138.3659  139.9753  163.9262 C.ar    1  UNL1        0.0219
      7 O         139.9747  137.5083  162.0623 O.2     1  UNL1       -0.1642
      8 S         138.8417  138.4706  161.8623 S.O2    1  UNL1        0.0287
      9 O         137.7086  139.4330  161.6623 O.2     1  UNL1       -0.1642
     10 C         138.9622  138.3038  160.3764 C.2     1  UNL1        0.1293
     11 C         140.2613  138.6067  159.6906 C.2     1  UNL1        0.0415
     12 C         140.3818  138.4398  158.2047 C.ar    1  UNL1        0.1100
     13 N         139.2174  138.7645  157.3167 N.ar    1  UNL1       -0.2415
     14 C         139.3379  138.5976  155.8309 C.ar    1  UNL1        0.0990
     15 C         140.6228  138.1060  155.2332 C.ar    1  UNL1        0.0230
     16 C         141.7873  137.7813  156.1212 C.ar    1  UNL1        0.0328
     17 C         141.6667  137.9482  157.6070 C.ar    1  UNL1        0.1577
     18 F         142.8312  137.6235  158.4951 F       1  UNL1       -0.2026
     19 O         138.3597  139.1382  167.8055 O.3     1  UNL1       -0.4754
     20 C         139.2819  140.0713  168.5326 C.3     1  UNL1        0.2068
     21 C         140.7671  139.9323  168.3744 C.3     1  UNL1        0.0646
     22 C         141.5084  140.8328  167.4312 C.3     1  UNL1        0.0761
     23 N         141.8140  140.3705  166.0373 N.3     1  UNL1       -0.2683
     24 C         142.2338  138.9513  165.7929 C.3     1  UNL1        0.1046
     25 C         142.5394  138.4891  164.3990 C.3     1  UNL1        0.1595
     26 O         142.4252  139.4460  163.2495 O.3     1  UNL1       -0.3508
     27 C         142.0054  140.8652  163.4939 C.3     1  UNL1        0.1595
     28 C         141.6998  141.3274  164.8878 C.3     1  UNL1        0.1046
@<TRIPOS>BOND
     1     7     8    2
     2     8     9    2
     3     8    10    1
     4    10    11    2
     5    11    12    1
     6    12    13   ar
     7    13    14   ar
     8    14    15   ar
     9    15    16   ar
    10    16    17   ar
    11    17    18    1
    12     8     1    1
    13     1     2   ar
    14     2     3   ar
    15     3     4   ar
    16     4    19    1
    17    19    20    1
    18    20    21    1
    19    21    22    1
    20    22    23    1
    21    23    24    1
    22    24    25    1
    23    25    26    1
    24    26    27    1
    25    27    28    1
    26     4     5   ar
    27     5     6   ar
    28    17    12   ar
    29     6     1   ar
    30    28    23    1
@<TRIPOS>MOLECULE
*****
 28 30 0 0 0
SMALL
GASTEIGER

@<TRIPOS>ATOM
      1 C         141.1556  137.9670  161.8630 C.ar    1  UNL1        0.1105
      2 C         141.7965  137.6101  163.1713 C.ar    1  UNL1        0.0219
      3 C         140.9475  137.4015  164.3903 C.ar    1  UNL1        0.0382
      4 C         139.4576  137.5499  164.3008 C.ar    1  UNL1        0.1386
      5 C         138.8166  137.9069  162.9924 C.ar    1  UNL1        0.0382
      6 C         139.6656  138.1154  161.7735 C.ar    1  UNL1        0.0219
      7 O         140.7781  138.5054  159.8462 O.2     1  UNL1       -0.1642
      8 S         142.0046  138.1755  160.6441 S.O2    1  UNL1        0.0287
      9 O         143.2311  137.8455  161.4421 O.2     1  UNL1       -0.1642
     10 C         142.8537  138.3840  159.4252 C.2     1  UNL1        0.1293
     11 C         143.1012  139.7715  158.9120 C.2     1  UNL1        0.0415
     12 C         143.9503  139.9800  157.6931 C.ar    1  UNL1        0.1100
     13 N         143.9522  138.9567  156.5964 N.ar    1  UNL1       -0.2415
     14 C         144.8013  139.1653  155.3776 C.ar    1  UNL1        0.0990
     15 C         145.6485  140.3971  155.2555 C.ar    1  UNL1        0.0230
     16 C         145.6466  141.4204  156.3522 C.ar    1  UNL1        0.0328
     17 C         144.7975  141.2118  157.5710 C.ar    1  UNL1        0.1577
     18 F         144.7956  142.2351  158.6678 F       1  UNL1       -0.2026
     19 O         138.6085  137.3414  165.5196 O.3     1  UNL1       -0.4754
     20 C         138.0886  138.5236  166.2826 C.3     1  UNL1        0.2068
     21 C         139.0462  139.5218  166.8630 C.3     1  UNL1        0.0646
     22 C         139.3344  140.7984  166.1301 C.3     1  UNL1        0.0761
     23 N         140.5449  140.9012  165.2501 N.3     1  UNL1       -0.2683
     24 C         140.3912  141.2636  163.8027 C.3     1  UNL1        0.1046
     25 C         141.6016  141.3664  162.9228 C.3     1  UNL1        0.1595
     26 O         142.9656  141.1066  163.4902 O.3     1  UNL1       -0.3508
     27 C         143.1193  140.7442  164.9376 C.3     1  UNL1        0.1595
     28 C         141.9089  140.6414  165.8175 C.3     1  UNL1        0.1046
@<TRIPOS>BOND
     1     7     8    2
     2     8     9    2
     3     8    10    1
     4    10    11    2
     5    11    12    1
     6    12    13   ar
     7    13    14   ar
     8    14    15   ar
     9    15    16   ar
    10    16    17   ar
    11    17    18    1
    12     8     1    1
    13     1     2   ar
    14     2     3   ar
    15     3     4   ar
    16     4    19    1
    17    19    20    1
    18    20    21    1
    19    21    22    1
    20    22    23    1
    21    23    24    1
    22    24    25    1
    23    25    26    1
    24    26    27    1
    25    27    28    1
    26     4     5   ar
    27     5     6   ar
    28    17    12   ar
    29     6     1   ar
    30    28    23    1
@<TRIPOS>MOLECULE
*****
 28 30 0 0 0
SMALL
GASTEIGER

@<TRIPOS>ATOM
      1 C         140.8434  144.5087  161.8668 C.ar    1  UNL1        0.1105
      2 C         141.5577  143.2880  162.3664 C.ar    1  UNL1        0.0219
      3 C         141.3620  142.8311  163.7817 C.ar    1  UNL1        0.0382
      4 C         140.4520  143.5949  164.6973 C.ar    1  UNL1        0.1386
      5 C         139.7376  144.8157  164.1977 C.ar    1  UNL1        0.0382
      6 C         139.9334  145.2726  162.7824 C.ar    1  UNL1        0.0219
      7 O         142.3992  144.3333  160.4355 O.2     1  UNL1       -0.1642
      8 S         141.0391  144.9656  160.4516 S.O2    1  UNL1        0.0287
      9 O         139.6790  145.5978  160.4676 O.2     1  UNL1       -0.1642
     10 C         141.2348  145.4225  159.0362 C.2     1  UNL1        0.1293
     11 C         140.0485  145.6078  158.1372 C.2     1  UNL1        0.0415
     12 C         140.2442  146.0647  156.7219 C.ar    1  UNL1        0.1100
     13 N         141.1674  145.3109  155.8113 N.ar    1  UNL1       -0.2415
     14 C         141.3631  145.7678  154.3960 C.ar    1  UNL1        0.0990
     15 C         140.6354  146.9785  153.8914 C.ar    1  UNL1        0.0230
     16 C         139.7122  147.7324  154.8020 C.ar    1  UNL1        0.0328
     17 C         139.5165  147.2755  156.2172 C.ar    1  UNL1        0.1577
     18 F         138.5932  148.0293  157.1279 F       1  UNL1       -0.2026
     19 O         140.2563  143.1381  166.1126 O.3     1  UNL1       -0.4754
     20 C         141.0926  142.0210  166.6625 C.3     1  UNL1        0.2068
     21 C         140.4528  140.7138  167.0258 C.3     1  UNL1        0.0646
     22 C         139.3733  140.1399  166.1569 C.3     1  UNL1        0.0761
     23 N         139.7176  139.1344  165.0983 N.3     1  UNL1       -0.2683
     24 C         138.7252  138.8090  164.0217 C.3     1  UNL1        0.1046
     25 C         139.0696  137.8036  162.9633 C.3     1  UNL1        0.1595
     26 O         140.4065  137.1235  162.9814 O.3     1  UNL1       -0.3508
     27 C         141.3989  137.4489  164.0580 C.3     1  UNL1        0.1595
     28 C         141.0545  138.4543  165.1165 C.3     1  UNL1        0.1046
@<TRIPOS>BOND
     1     7     8    2
     2     8     9    2
     3     8    10    1
     4    10    11    2
     5    11    12    1
     6    12    13   ar
     7    13    14   ar
     8    14    15   ar
     9    15    16   ar
    10    16    17   ar
    11    17    18    1
    12     8     1    1
    13     1     2   ar
    14     2     3   ar
    15     3     4   ar
    16     4    19    1
    17    19    20    1
    18    20    21    1
    19    21    22    1
    20    22    23    1
    21    23    24    1
    22    24    25    1
    23    25    26    1
    24    26    27    1
    25    27    28    1
    26     4     5   ar
    27     5     6   ar
    28    17    12   ar
    29     6     1   ar
    30    28    23    1
@<TRIPOS>MOLECULE
*****
 28 30 0 0 0
SMALL
GASTEIGER

@<TRIPOS>ATOM
      1 C         140.9968  137.9663  162.3322 C.ar    1  UNL1        0.1105
      2 C         139.5439  138.3185  162.2095 C.ar    1  UNL1        0.0219
      3 C         138.6594  138.2859  163.4206 C.ar    1  UNL1        0.0382
      4 C         139.2278  137.9012  164.7544 C.ar    1  UNL1        0.1386
      5 C         140.6808  137.5490  164.8770 C.ar    1  UNL1        0.0382
      6 C         141.5652  137.5815  163.6660 C.ar    1  UNL1        0.0219
      7 O         143.0581  137.6201  161.9705 O.2     1  UNL1       -0.1642
      8 S         141.8812  137.9989  161.1212 S.O2    1  UNL1        0.0287
      9 O         140.7043  138.3776  160.2719 O.2     1  UNL1       -0.1642
     10 C         142.7657  138.0315  159.9101 C.2     1  UNL1        0.1293
     11 C         142.2353  138.5540  158.6079 C.2     1  UNL1        0.0415
     12 C         143.1197  138.5866  157.3968 C.ar    1  UNL1        0.1100
     13 N         143.9324  139.8105  157.0942 N.ar    1  UNL1       -0.2415
     14 C         144.8167  139.8430  155.8832 C.ar    1  UNL1        0.0990
     15 C         144.8885  138.6516  154.9746 C.ar    1  UNL1        0.0230
     16 C         144.0759  137.4277  155.2772 C.ar    1  UNL1        0.0328
     17 C         143.1915  137.3952  156.4882 C.ar    1  UNL1        0.1577
     18 F         142.3788  136.1712  156.7908 F       1  UNL1       -0.2026
     19 O         138.3434  137.8686  165.9654 O.3     1  UNL1       -0.4754
     20 C         138.3145  139.0378  166.9046 C.3     1  UNL1        0.2068
     21 C         139.3860  140.0850  166.8318 C.3     1  UNL1        0.0646
     22 C         140.6331  139.9404  167.6525 C.3     1  UNL1        0.0761
     23 N         140.7617  140.6706  168.9565 N.3     1  UNL1       -0.2683
     24 C         139.9282  141.8898  169.2187 C.3     1  UNL1        0.1046
     25 C         140.0568  142.6200  170.5227 C.3     1  UNL1        0.1595
     26 O         141.0188  142.1309  171.5644 O.3     1  UNL1       -0.3508
     27 C         141.8523  140.9117  171.3022 C.3     1  UNL1        0.1595
     28 C         141.7237  140.1816  169.9983 C.3     1  UNL1        0.1046
@<TRIPOS>BOND
     1     7     8    2
     2     8     9    2
     3     8    10    1
     4    10    11    2
     5    11    12    1
     6    12    13   ar
     7    13    14   ar
     8    14    15   ar
     9    15    16   ar
    10    16    17   ar
    11    17    18    1
    12     8     1    1
    13     1     2   ar
    14     2     3   ar
    15     3     4   ar
    16     4    19    1
    17    19    20    1
    18    20    21    1
    19    21    22    1
    20    22    23    1
    21    23    24    1
    22    24    25    1
    23    25    26    1
    24    26    27    1
    25    27    28    1
    26     4     5   ar
    27     5     6   ar
    28    17    12   ar
    29     6     1   ar
    30    28    23    1
@<TRIPOS>MOLECULE
*****
 28 30 0 0 0
SMALL
GASTEIGER

@<TRIPOS>ATOM
      1 C         143.8054  139.6181  160.9654 C.ar    1  UNL1        0.1105
      2 C         144.0951  141.0514  160.6313 C.ar    1  UNL1        0.0219
      3 C         144.6252  141.9754  161.6874 C.ar    1  UNL1        0.0382
      4 C         144.8656  141.4660  163.0776 C.ar    1  UNL1        0.1386
      5 C         144.5759  140.0326  163.4117 C.ar    1  UNL1        0.0382
      6 C         144.0458  139.1087  162.3556 C.ar    1  UNL1        0.0219
      7 O         144.0895  139.4112  158.8734 O.2     1  UNL1       -0.1642
      8 S         143.2753  138.6942  159.9093 S.O2    1  UNL1        0.0287
      9 O         142.4612  137.9772  160.9451 O.2     1  UNL1       -0.1642
     10 C         142.7452  137.7703  158.8532 C.2     1  UNL1        0.1293
     11 C         142.8251  138.1599  157.4069 C.2     1  UNL1        0.0415
     12 C         142.2950  137.2360  156.3508 C.ar    1  UNL1        0.1100
     13 N         140.8154  137.0444  156.1958 N.ar    1  UNL1       -0.2415
     14 C         140.2853  136.1205  155.1397 C.ar    1  UNL1        0.0990
     15 C         141.2349  135.3881  154.2386 C.ar    1  UNL1        0.0230
     16 C         142.7144  135.5797  154.3936 C.ar    1  UNL1        0.0328
     17 C         143.2445  136.5036  155.4497 C.ar    1  UNL1        0.1577
     18 F         144.7242  136.6952  155.6047 F       1  UNL1       -0.2026
     19 O         145.3957  142.3899  164.1337 O.3     1  UNL1       -0.4754
     20 C         144.4460  143.1264  165.0312 C.3     1  UNL1        0.2068
     21 C         143.3261  143.9304  164.4399 C.3     1  UNL1        0.0646
     22 C         141.9271  143.3895  164.4513 C.3     1  UNL1        0.0761
     23 N         140.8439  144.0951  163.6905 N.3     1  UNL1       -0.2683
     24 C         141.1916  145.2161  162.7564 C.3     1  UNL1        0.1046
     25 C         140.1084  145.9216  161.9956 C.3     1  UNL1        0.1595
     26 O         138.6775  145.5062  162.1688 O.3     1  UNL1       -0.3508
     27 C         138.3298  144.3853  163.1029 C.3     1  UNL1        0.1595
     28 C         139.4130  143.6797  163.8637 C.3     1  UNL1        0.1046
@<TRIPOS>BOND
     1     7     8    2
     2     8     9    2
     3     8    10    1
     4    10    11    2
     5    11    12    1
     6    12    13   ar
     7    13    14   ar
     8    14    15   ar
     9    15    16   ar
    10    16    17   ar
    11    17    18    1
    12     8     1    1
    13     1     2   ar
    14     2     3   ar
    15     3     4   ar
    16     4    19    1
    17    19    20    1
    18    20    21    1
    19    21    22    1
    20    22    23    1
    21    23    24    1
    22    24    25    1
    23    25    26    1
    24    26    27    1
    25    27    28    1
    26     4     5   ar
    27     5     6   ar
    28    17    12   ar
    29     6     1   ar
    30    28    23    1
@<TRIPOS>MOLECULE
*****
 28 30 0 0 0
SMALL
GASTEIGER

@<TRIPOS>ATOM
      1 C         142.9628  139.5463  162.7904 C.ar    1  UNL1        0.1105
      2 C         142.6299  138.1528  162.3464 C.ar    1  UNL1        0.0219
      3 C         142.7666  137.7731  160.9017 C.ar    1  UNL1        0.0382
      4 C         143.2364  138.7870  159.9010 C.ar    1  UNL1        0.1386
      5 C         143.5693  140.1806  160.3451 C.ar    1  UNL1        0.0382
      6 C         143.4325  140.5602  161.7898 C.ar    1  UNL1        0.0219
      7 O         143.1513  138.5175  164.6360 O.2     1  UNL1       -0.1642
      8 S         142.8260  139.9259  164.2351 S.O2    1  UNL1        0.0287
      9 O         142.5007  141.3342  163.8343 O.2     1  UNL1       -0.1642
     10 C         142.6892  140.3055  165.6799 C.2     1  UNL1        0.1293
     11 C         141.8284  139.4839  166.5930 C.2     1  UNL1        0.0415
     12 C         141.6916  139.8636  168.0377 C.ar    1  UNL1        0.1100
     13 N         142.9130  139.9873  168.8996 N.ar    1  UNL1       -0.2415
     14 C         142.7761  140.3669  170.3442 C.ar    1  UNL1        0.0990
     15 C         141.4179  140.6229  170.9270 C.ar    1  UNL1        0.0230
     16 C         140.1965  140.4992  170.0652 C.ar    1  UNL1        0.0328
     17 C         140.3333  140.1196  168.6205 C.ar    1  UNL1        0.1577
     18 F         139.1119  139.9959  167.7586 F       1  UNL1       -0.2026
     19 O         143.3731  138.4074  158.4563 O.3     1  UNL1       -0.4754
     20 C         142.1484  138.2231  157.6102 C.3     1  UNL1        0.2068
     21 C         140.9477  139.0953  157.8286 C.3     1  UNL1        0.0646
     22 C         139.7799  138.5801  158.6165 C.3     1  UNL1        0.0761
     23 N         139.5664  139.0398  160.0284 N.3     1  UNL1       -0.2683
     24 C         139.8556  140.4624  160.4058 C.3     1  UNL1        0.1046
     25 C         139.6421  140.9219  161.8176 C.3     1  UNL1        0.1595
     26 O         139.1393  139.9589  162.8519 O.3     1  UNL1       -0.3508
     27 C         138.8500  138.5363  162.4744 C.3     1  UNL1        0.1595
     28 C         139.0636  138.0768  161.0627 C.3     1  UNL1        0.1046
@<TRIPOS>BOND
     1     7     8    2
     2     8     9    2
     3     8    10    1
     4    10    11    2
     5    11    12    1
     6    12    13   ar
     7    13    14   ar
     8    14    15   ar
     9    15    16   ar
    10    16    17   ar
    11    17    18    1
    12     8     1    1
    13     1     2   ar
    14     2     3   ar
    15     3     4   ar
    16     4    19    1
    17    19    20    1
    18    20    21    1
    19    21    22    1
    20    22    23    1
    21    23    24    1
    22    24    25    1
    23    25    26    1
    24    26    27    1
    25    27    28    1
    26     4     5   ar
    27     5     6   ar
    28    17    12   ar
    29     6     1   ar
    30    28    23    1
@<TRIPOS>MOLECULE
*****
 28 30 0 0 0
SMALL
GASTEIGER

@<TRIPOS>ATOM
      1 C         140.8668  144.4477  162.1591 C.ar    1  UNL1        0.1105
      2 C         141.6870  143.2705  162.5967 C.ar    1  UNL1        0.0219
      3 C         141.5412  142.7308  163.9887 C.ar    1  UNL1        0.0382
      4 C         140.5753  143.3683  164.9429 C.ar    1  UNL1        0.1386
      5 C         139.7551  144.5455  164.5052 C.ar    1  UNL1        0.0382
      6 C         139.9009  145.0852  163.1133 C.ar    1  UNL1        0.0219
      7 O         142.3839  144.3862  160.6777 O.2     1  UNL1       -0.1642
      8 S         141.0126  144.9874  160.7672 S.O2    1  UNL1        0.0287
      9 O         139.6413  145.5885  160.8566 O.2     1  UNL1       -0.1642
     10 C         141.1583  145.5271  159.3752 C.2     1  UNL1        0.1293
     11 C         140.0644  145.3166  158.3708 C.2     1  UNL1        0.0415
     12 C         140.2101  145.8563  156.9788 C.ar    1  UNL1        0.1100
     13 N         139.3593  147.0062  156.5273 N.ar    1  UNL1       -0.2415
     14 C         139.5050  147.5458  155.1354 C.ar    1  UNL1        0.0990
     15 C         140.5017  146.9357  154.1950 C.ar    1  UNL1        0.0230
     16 C         141.3525  145.7858  154.6465 C.ar    1  UNL1        0.0328
     17 C         141.2067  145.2462  156.0384 C.ar    1  UNL1        0.1577
     18 F         142.0576  144.0963  156.4899 F       1  UNL1       -0.2026
     19 O         140.4295  142.8286  166.3348 O.3     1  UNL1       -0.4754
     20 C         139.9001  141.4417  166.5498 C.3     1  UNL1        0.2068
     21 C         140.8493  140.2853  166.6600 C.3     1  UNL1        0.0646
     22 C         142.0794  140.4031  167.5103 C.3     1  UNL1        0.0761
     23 N         141.9939  141.0303  168.8702 N.3     1  UNL1       -0.2683
     24 C         141.1538  140.3945  169.9379 C.3     1  UNL1        0.1046
     25 C         141.0684  141.0217  171.2978 C.3     1  UNL1        0.1595
     26 O         141.8231  142.2846  171.5900 O.3     1  UNL1       -0.3508
     27 C         142.6631  142.9204  170.5223 C.3     1  UNL1        0.1595
     28 C         142.7486  142.2933  169.1624 C.3     1  UNL1        0.1046
@<TRIPOS>BOND
     1     7     8    2
     2     8     9    2
     3     8    10    1
     4    10    11    2
     5    11    12    1
     6    12    13   ar
     7    13    14   ar
     8    14    15   ar
     9    15    16   ar
    10    16    17   ar
    11    17    18    1
    12     8     1    1
    13     1     2   ar
    14     2     3   ar
    15     3     4   ar
    16     4    19    1
    17    19    20    1
    18    20    21    1
    19    21    22    1
    20    22    23    1
    21    23    24    1
    22    24    25    1
    23    25    26    1
    24    26    27    1
    25    27    28    1
    26     4     5   ar
    27     5     6   ar
    28    17    12   ar
    29     6     1   ar
    30    28    23    1
@<TRIPOS>MOLECULE
*****
 28 30 0 0 0
SMALL
GASTEIGER

@<TRIPOS>ATOM
      1 C         141.1245  138.0141  162.0543 C.ar    1  UNL1        0.1105
      2 C         141.7159  137.5340  163.3464 C.ar    1  UNL1        0.0219
      3 C         140.8391  137.3472  164.5491 C.ar    1  UNL1        0.0382
      4 C         139.3708  137.6405  164.4595 C.ar    1  UNL1        0.1386
      5 C         138.7793  138.1206  163.1673 C.ar    1  UNL1        0.0382
      6 C         139.6562  138.3074  161.9647 C.ar    1  UNL1        0.0219
      7 O         140.7845  138.3155  159.9823 O.2     1  UNL1       -0.1642
      8 S         142.0013  138.2009  160.8518 S.O2    1  UNL1        0.0287
      9 O         143.2182  138.0863  161.7212 O.2     1  UNL1       -0.1642
     10 C         142.8783  138.3877  159.6492 C.2     1  UNL1        0.1293
     11 C         142.2939  138.9035  158.3676 C.2     1  UNL1        0.0415
     12 C         143.1708  139.0903  157.1650 C.ar    1  UNL1        0.1100
     13 N         144.3763  139.9791  157.2467 N.ar    1  UNL1       -0.2415
     14 C         145.2532  140.1658  156.0441 C.ar    1  UNL1        0.0990
     15 C         144.9245  139.4638  154.7599 C.ar    1  UNL1        0.0230
     16 C         143.7190  138.5750  154.6783 C.ar    1  UNL1        0.0328
     17 C         142.8422  138.3882  155.8808 C.ar    1  UNL1        0.1577
     18 F         141.6365  137.4994  155.7993 F       1  UNL1       -0.2026
     19 O         138.4939  137.4537  165.6621 O.3     1  UNL1       -0.4754
     20 C         138.0462  138.6450  166.4561 C.3     1  UNL1        0.2068
     21 C         139.0618  139.5461  167.0937 C.3     1  UNL1        0.0646
     22 C         139.4580  140.8257  166.4187 C.3     1  UNL1        0.0761
     23 N         140.6735  140.8652  165.5405 N.3     1  UNL1       -0.2683
     24 C         140.5571  141.3300  164.1192 C.3     1  UNL1        0.1046
     25 C         141.7726  141.3696  163.2411 C.3     1  UNL1        0.1595
     26 O         143.1045  140.9444  163.7845 O.3     1  UNL1       -0.3508
     27 C         143.2209  140.4796  165.2058 C.3     1  UNL1        0.1595
     28 C         142.0054  140.4400  166.0839 C.3     1  UNL1        0.1046
@<TRIPOS>BOND
     1     7     8    2
     2     8     9    2
     3     8    10    1
     4    10    11    2
     5    11    12    1
     6    12    13   ar
     7    13    14   ar
     8    14    15   ar
     9    15    16   ar
    10    16    17   ar
    11    17    18    1
    12     8     1    1
    13     1     2   ar
    14     2     3   ar
    15     3     4   ar
    16     4    19    1
    17    19    20    1
    18    20    21    1
    19    21    22    1
    20    22    23    1
    21    23    24    1
    22    24    25    1
    23    25    26    1
    24    26    27    1
    25    27    28    1
    26     4     5   ar
    27     5     6   ar
    28    17    12   ar
    29     6     1   ar
    30    28    23    1
@<TRIPOS>MOLECULE
*****
 28 30 0 0 0
SMALL
GASTEIGER

@<TRIPOS>ATOM
      1 C         141.5937  143.7358  163.4112 C.ar    1  UNL1        0.1105
      2 C         140.6332  144.8492  163.1154 C.ar    1  UNL1        0.0219
      3 C         140.5613  145.4307  161.7345 C.ar    1  UNL1        0.0382
      4 C         141.4500  144.8986  160.6495 C.ar    1  UNL1        0.1386
      5 C         142.4105  143.7851  160.9454 C.ar    1  UNL1        0.0382
      6 C         142.4824  143.2037  162.3262 C.ar    1  UNL1        0.0219
      7 O         143.0040  142.5579  164.4713 O.2     1  UNL1       -0.1642
      8 S         141.6656  143.1544  164.7920 S.O2    1  UNL1        0.0287
      9 O         140.3272  143.7508  165.1128 O.2     1  UNL1       -0.1642
     10 C         141.7374  142.5729  166.1730 C.2     1  UNL1        0.1293
     11 C         140.4920  142.4470  166.9994 C.2     1  UNL1        0.0415
     12 C         140.5638  141.8656  168.3803 C.ar    1  UNL1        0.1100
     13 N         140.7782  140.3924  168.5636 N.ar    1  UNL1       -0.2415
     14 C         140.8500  139.8110  169.9445 C.ar    1  UNL1        0.0990
     15 C         140.7074  140.7029  171.1421 C.ar    1  UNL1        0.0230
     16 C         140.4931  142.1762  170.9588 C.ar    1  UNL1        0.0328
     17 C         140.4213  142.7575  169.5779 C.ar    1  UNL1        0.1577
     18 F         140.2070  144.2308  169.3946 F       1  UNL1       -0.2026
     19 O         141.3781  145.4800  159.2686 O.3     1  UNL1       -0.4754
     20 C         140.3201  145.0142  158.3129 C.3     1  UNL1        0.2068
     21 C         140.0324  143.5491  158.1684 C.3     1  UNL1        0.0646
     22 C         138.8458  142.9460  158.8599 C.3     1  UNL1        0.0761
     23 N         139.0219  142.2343  160.1685 N.3     1  UNL1       -0.2683
     24 C         140.0302  141.1308  160.2923 C.3     1  UNL1        0.1046
     25 C         140.2063  140.4191  161.6010 C.3     1  UNL1        0.1595
     26 O         139.3741  140.8111  162.7858 O.3     1  UNL1       -0.3508
     27 C         138.3658  141.9147  162.6620 C.3     1  UNL1        0.1595
     28 C         138.1897  142.6263  161.3534 C.3     1  UNL1        0.1046
@<TRIPOS>BOND
     1     7     8    2
     2     8     9    2
     3     8    10    1
     4    10    11    2
     5    11    12    1
     6    12    13   ar
     7    13    14   ar
     8    14    15   ar
     9    15    16   ar
    10    16    17   ar
    11    17    18    1
    12     8     1    1
    13     1     2   ar
    14     2     3   ar
    15     3     4   ar
    16     4    19    1
    17    19    20    1
    18    20    21    1
    19    21    22    1
    20    22    23    1
    21    23    24    1
    22    24    25    1
    23    25    26    1
    24    26    27    1
    25    27    28    1
    26     4     5   ar
    27     5     6   ar
    28    17    12   ar
    29     6     1   ar
    30    28    23    1
