@<TRIPOS>MOLECULE
*****
 20 21 0 0 0
SMALL
GASTEIGER

@<TRIPOS>ATOM
      1 N         143.5457  143.9728  171.2572 N.pl3   1  UNL1       -0.3262
      2 C         142.6424  143.2417  170.3088 C.ar    1  UNL1        0.2341
      3 N         141.1867  143.5961  170.2359 N.ar    1  UNL1       -0.1128
      4 N         140.2833  142.8649  169.2876 N.ar    1  UNL1       -0.1424
      5 C         140.8356  141.7794  168.4121 C.ar    1  UNL1        0.1348
      6 C         142.2913  141.4250  168.4850 C.ar    1  UNL1        0.1479
      7 N         142.8437  140.3394  167.6095 N.pl3   1  UNL1       -0.3413
      8 N         143.1947  142.1561  169.4333 N.ar    1  UNL1       -0.1967
      9 H         143.1832  144.6853  171.8318 H       1  UNL1        0.1452
     10 H         144.5012  143.7402  171.3050 H       1  UNL1        0.1452
     11 H         142.2508  139.8595  166.9870 H       1  UNL1        0.1438
     12 H         143.7991  140.1068  167.6573 H       1  UNL1        0.1438
     13 C         139.9323  141.0483  167.4638 C.ar    1  UNL1        0.0336
     14 C         139.2403  139.7926  167.9047 C.ar    1  UNL1        0.0025
     15 C         138.3369  139.0615  166.9563 C.ar    1  UNL1        0.0010
     16 C         138.1255  139.5860  165.5670 C.ar    1  UNL1        0.0122
     17 C         138.8175  140.8416  165.1261 C.ar    1  UNL1        0.0682
     18 CL        138.6061  141.3662  163.7368 Cl      1  UNL1       -0.0814
     19 C         139.7209  141.5728  166.0745 C.ar    1  UNL1        0.0698
     20 CL        140.4129  142.8285  165.6335 Cl      1  UNL1       -0.0813
@<TRIPOS>BOND
     1     1     2    1
     2     2     3   ar
     3     3     4   ar
     4     4     5   ar
     5     5    13    1
     6    13    14   ar
     7    14    15   ar
     8    15    16   ar
     9    16    17   ar
    10    17    18    1
    11    17    19   ar
    12    19    20    1
    13     5     6   ar
    14     6     7    1
    15     6     8   ar
    16     8     2   ar
    17    19    13   ar
    18     1     9    1
    19     1    10    1
    20     7    11    1
    21     7    12    1
@<TRIPOS>MOLECULE
*****
 20 21 0 0 0
SMALL
GASTEIGER

@<TRIPOS>ATOM
      1 N         139.2818  143.2372  171.3019 N.pl3   1  UNL1       -0.3262
      2 C         139.6529  142.3251  170.1703 C.ar    1  UNL1        0.2341
      3 N         139.4121  140.8492  170.2869 N.ar    1  UNL1       -0.1128
      4 N         139.7832  139.9371  169.1553 N.ar    1  UNL1       -0.1424
      5 C         140.3950  140.5009  167.9073 C.ar    1  UNL1        0.1348
      6 C         140.6358  141.9768  167.7908 C.ar    1  UNL1        0.1479
      7 N         141.2477  142.5407  166.5427 N.pl3   1  UNL1       -0.3413
      8 N         140.2647  142.8889  168.9223 N.ar    1  UNL1       -0.1967
      9 H         138.8802  142.8672  172.1210 H       1  UNL1        0.1452
     10 H         139.4398  144.2060  171.2254 H       1  UNL1        0.1452
     11 H         141.4913  141.9421  165.8000 H       1  UNL1        0.1438
     12 H         141.4058  143.5095  166.4662 H       1  UNL1        0.1438
     13 C         140.7661  139.5888  166.7757 C.ar    1  UNL1        0.0336
     14 C         142.1965  139.1828  166.5779 C.ar    1  UNL1        0.0025
     15 C         142.5676  138.2707  165.4464 C.ar    1  UNL1        0.0010
     16 C         141.5083  137.7646  164.5127 C.ar    1  UNL1        0.0122
     17 C         140.0779  138.1706  164.7105 C.ar    1  UNL1        0.0682
     18 CL        139.0186  137.6646  163.7768 Cl      1  UNL1       -0.0814
     19 C         139.7069  139.0827  165.8421 C.ar    1  UNL1        0.0698
     20 CL        138.2764  139.4888  166.0399 Cl      1  UNL1       -0.0813
@<TRIPOS>BOND
     1     1     2    1
     2     2     3   ar
     3     3     4   ar
     4     4     5   ar
     5     5    13    1
     6    13    14   ar
     7    14    15   ar
     8    15    16   ar
     9    16    17   ar
    10    17    18    1
    11    17    19   ar
    12    19    20    1
    13     5     6   ar
    14     6     7    1
    15     6     8   ar
    16     8     2   ar
    17    19    13   ar
    18     1     9    1
    19     1    10    1
    20     7    11    1
    21     7    12    1
@<TRIPOS>MOLECULE
*****
 20 21 0 0 0
SMALL
GASTEIGER

@<TRIPOS>ATOM
      1 N         144.6763  142.8687  170.2930 N.pl3   1  UNL1       -0.3262
      2 C         143.7412  142.0763  169.4283 C.ar    1  UNL1        0.2341
      3 N         143.2674  140.7258  169.8772 N.ar    1  UNL1       -0.1128
      4 N         142.3323  139.9335  169.0125 N.ar    1  UNL1       -0.1424
      5 C         141.8711  140.4916  167.6989 C.ar    1  UNL1        0.1348
      6 C         142.3449  141.8421  167.2499 C.ar    1  UNL1        0.1479
      7 N         141.8837  142.4002  165.9362 N.pl3   1  UNL1       -0.3413
      8 N         143.2800  142.6344  168.1146 N.ar    1  UNL1       -0.1967
      9 H         144.9791  142.5024  171.1552 H       1  UNL1        0.1452
     10 H         144.9873  143.7551  169.9983 H       1  UNL1        0.1452
     11 H         141.2700  141.8802  165.3686 H       1  UNL1        0.1438
     12 H         142.1947  143.2866  165.6416 H       1  UNL1        0.1438
     13 C         140.9360  139.6992  166.8341 C.ar    1  UNL1        0.0336
     14 C         139.4529  139.8331  167.0142 C.ar    1  UNL1        0.0025
     15 C         138.5178  139.0407  166.1495 C.ar    1  UNL1        0.0010
     16 C         139.0658  138.1144  165.1047 C.ar    1  UNL1        0.0122
     17 C         140.5489  137.9805  164.9247 C.ar    1  UNL1        0.0682
     18 CL        141.0969  137.0541  163.8798 Cl      1  UNL1       -0.0814
     19 C         141.4840  138.7729  165.7894 C.ar    1  UNL1        0.0698
     20 CL        142.9671  138.6389  165.6093 Cl      1  UNL1       -0.0813
@<TRIPOS>BOND
     1     1     2    1
     2     2     3   ar
     3     3     4   ar
     4     4     5   ar
     5     5    13    1
     6    13    14   ar
     7    14    15   ar
     8    15    16   ar
     9    16    17   ar
    10    17    18    1
    11    17    19   ar
    12    19    20    1
    13     5     6   ar
    14     6     7    1
    15     6     8   ar
    16     8     2   ar
    17    19    13   ar
    18     1     9    1
    19     1    10    1
    20     7    11    1
    21     7    12    1
@<TRIPOS>MOLECULE
*****
 20 21 0 0 0
SMALL
GASTEIGER

@<TRIPOS>ATOM
      1 N         140.4278  140.4811  171.2878 N.pl3   1  UNL1       -0.3262
      2 C         140.0900  140.1697  169.8599 C.ar    1  UNL1        0.2341
      3 N         138.7169  139.6828  169.5029 N.ar    1  UNL1       -0.1128
      4 N         138.3792  139.3714  168.0750 N.ar    1  UNL1       -0.1424
      5 C         139.4146  139.5469  167.0040 C.ar    1  UNL1        0.1348
      6 C         140.7877  140.0338  167.3609 C.ar    1  UNL1        0.1479
      7 N         141.8232  140.2093  166.2899 N.pl3   1  UNL1       -0.3413
      8 N         141.1254  140.3452  168.7888 N.ar    1  UNL1       -0.1967
      9 H         139.7482  140.3659  171.9907 H       1  UNL1        0.1452
     10 H         141.3290  140.8006  171.5220 H       1  UNL1        0.1452
     11 H         141.6015  140.0050  165.3527 H       1  UNL1        0.1438
     12 H         142.7244  140.5289  166.5242 H       1  UNL1        0.1438
     13 C         139.0769  139.2356  165.5761 C.ar    1  UNL1        0.0336
     14 C         139.2553  137.8423  165.0498 C.ar    1  UNL1        0.0025
     15 C         138.9176  137.5309  163.6219 C.ar    1  UNL1        0.0010
     16 C         138.4014  138.6128  162.7202 C.ar    1  UNL1        0.0122
     17 C         138.2230  140.0060  163.2465 C.ar    1  UNL1        0.0682
     18 CL        137.7068  141.0880  162.3448 Cl      1  UNL1       -0.0814
     19 C         138.5607  140.3174  164.6744 C.ar    1  UNL1        0.0698
     20 CL        138.3822  141.7108  165.2006 Cl      1  UNL1       -0.0813
@<TRIPOS>BOND
     1     1     2    1
     2     2     3   ar
     3     3     4   ar
     4     4     5   ar
     5     5    13    1
     6    13    14   ar
     7    14    15   ar
     8    15    16   ar
     9    16    17   ar
    10    17    18    1
    11    17    19   ar
    12    19    20    1
    13     5     6   ar
    14     6     7    1
    15     6     8   ar
    16     8     2   ar
    17    19    13   ar
    18     1     9    1
    19     1    10    1
    20     7    11    1
    21     7    12    1
@<TRIPOS>MOLECULE
*****
 20 21 0 0 0
SMALL
GASTEIGER

@<TRIPOS>ATOM
      1 N         139.9292  139.5088  171.4284 N.pl3   1  UNL1       -0.3262
      2 C         140.6669  139.6269  170.1276 C.ar    1  UNL1        0.2341
      3 N         142.1532  139.4287  170.0876 N.ar    1  UNL1       -0.1128
      4 N         142.8908  139.5469  168.7869 N.ar    1  UNL1       -0.1424
      5 C         142.1422  139.8633  167.5262 C.ar    1  UNL1        0.1348
      6 C         140.6559  140.0615  167.5662 C.ar    1  UNL1        0.1479
      7 N         139.9072  140.3778  166.3055 N.pl3   1  UNL1       -0.3413
      8 N         139.9183  139.9433  168.8669 N.ar    1  UNL1       -0.1967
      9 H         140.4206  139.3011  172.2558 H       1  UNL1        0.1452
     10 H         138.9537  139.6389  171.4546 H       1  UNL1        0.1452
     11 H         140.3913  140.4554  165.4517 H       1  UNL1        0.1438
     12 H         138.9317  140.5079  166.3317 H       1  UNL1        0.1438
     13 C         142.8798  139.9814  166.2255 C.ar    1  UNL1        0.0336
     14 C         143.0498  138.7772  165.3475 C.ar    1  UNL1        0.0025
     15 C         143.7874  138.8953  164.0468 C.ar    1  UNL1        0.0010
     16 C         144.3551  140.2177  163.6240 C.ar    1  UNL1        0.0122
     17 C         144.1852  141.4220  164.5019 C.ar    1  UNL1        0.0682
     18 CL        144.7530  142.7445  164.0791 Cl      1  UNL1       -0.0814
     19 C         143.4476  141.3039  165.8026 C.ar    1  UNL1        0.0698
     20 CL        143.2777  142.5082  166.6806 Cl      1  UNL1       -0.0813
@<TRIPOS>BOND
     1     1     2    1
     2     2     3   ar
     3     3     4   ar
     4     4     5   ar
     5     5    13    1
     6    13    14   ar
     7    14    15   ar
     8    15    16   ar
     9    16    17   ar
    10    17    18    1
    11    17    19   ar
    12    19    20    1
    13     5     6   ar
    14     6     7    1
    15     6     8   ar
    16     8     2   ar
    17    19    13   ar
    18     1     9    1
    19     1    10    1
    20     7    11    1
    21     7    12    1
@<TRIPOS>MOLECULE
*****
 20 21 0 0 0
SMALL
GASTEIGER

@<TRIPOS>ATOM
      1 N         143.3698  139.4984  171.1056 N.pl3   1  UNL1       -0.3262
      2 C         142.4736  139.6967  169.9193 C.ar    1  UNL1        0.2341
      3 N         143.0671  139.9411  168.5635 N.ar    1  UNL1       -0.1128
      4 N         142.1709  140.1393  167.3771 N.ar    1  UNL1       -0.1424
      5 C         140.6813  140.0932  167.5465 C.ar    1  UNL1        0.1348
      6 C         140.0878  139.8488  168.9022 C.ar    1  UNL1        0.1479
      7 N         138.5980  139.8026  169.0715 N.pl3   1  UNL1       -0.3413
      8 N         140.9840  139.6505  170.0886 N.ar    1  UNL1       -0.1967
      9 H         144.3476  139.5287  170.9945 H       1  UNL1        0.1452
     10 H         142.9803  139.3380  171.9955 H       1  UNL1        0.1452
     11 H         138.0098  139.9327  168.2929 H       1  UNL1        0.1438
     12 H         138.2085  139.6422  169.9614 H       1  UNL1        0.1438
     13 C         139.7851  140.2914  166.3601 C.ar    1  UNL1        0.0336
     14 C         139.2010  139.1036  165.6545 C.ar    1  UNL1        0.0025
     15 C         138.3048  139.3019  164.4681 C.ar    1  UNL1        0.0010
     16 C         137.9927  140.6880  163.9873 C.ar    1  UNL1        0.0122
     17 C         138.5767  141.8758  164.6928 C.ar    1  UNL1        0.0682
     18 CL        138.2646  143.2620  164.2120 Cl      1  UNL1       -0.0814
     19 C         139.4729  141.6775  165.8792 C.ar    1  UNL1        0.0698
     20 CL        140.0570  142.8655  166.5848 Cl      1  UNL1       -0.0813
@<TRIPOS>BOND
     1     1     2    1
     2     2     3   ar
     3     3     4   ar
     4     4     5   ar
     5     5    13    1
     6    13    14   ar
     7    14    15   ar
     8    15    16   ar
     9    16    17   ar
    10    17    18    1
    11    17    19   ar
    12    19    20    1
    13     5     6   ar
    14     6     7    1
    15     6     8   ar
    16     8     2   ar
    17    19    13   ar
    18     1     9    1
    19     1    10    1
    20     7    11    1
    21     7    12    1
@<TRIPOS>MOLECULE
*****
 20 21 0 0 0
SMALL
GASTEIGER

@<TRIPOS>ATOM
      1 N         139.6071  139.5124  171.1239 N.pl3   1  UNL1       -0.3262
      2 C         139.8406  140.3630  169.9106 C.ar    1  UNL1        0.2341
      3 N         140.3436  141.7677  170.0650 N.ar    1  UNL1       -0.1128
      4 N         140.5771  142.6183  168.8518 N.ar    1  UNL1       -0.1424
      5 C         140.3075  142.0643  167.4842 C.ar    1  UNL1        0.1348
      6 C         139.8044  140.6597  167.3298 C.ar    1  UNL1        0.1479
      7 N         139.5347  140.1056  165.9622 N.pl3   1  UNL1       -0.3413
      8 N         139.5709  139.8090  168.5431 N.ar    1  UNL1       -0.1967
      9 H         139.7841  139.8760  172.0215 H       1  UNL1        0.1452
     10 H         139.2769  138.5905  171.0225 H       1  UNL1        0.1452
     11 H         139.6880  140.6639  165.1659 H       1  UNL1        0.1438
     12 H         139.2046  139.1837  165.8609 H       1  UNL1        0.1438
     13 C         140.5409  142.9150  166.2710 C.ar    1  UNL1        0.0336
     14 C         139.4374  143.7797  165.7377 C.ar    1  UNL1        0.0025
     15 C         139.6709  144.6303  164.5244 C.ar    1  UNL1        0.0010
     16 C         141.0078  144.6162  163.8445 C.ar    1  UNL1        0.0122
     17 C         142.1113  143.7515  164.3778 C.ar    1  UNL1        0.0682
     18 CL        143.4484  143.7374  163.6979 Cl      1  UNL1       -0.0814
     19 C         141.8779  142.9009  165.5911 C.ar    1  UNL1        0.0698
     20 CL        142.9815  142.0361  166.1244 Cl      1  UNL1       -0.0813
@<TRIPOS>BOND
     1     1     2    1
     2     2     3   ar
     3     3     4   ar
     4     4     5   ar
     5     5    13    1
     6    13    14   ar
     7    14    15   ar
     8    15    16   ar
     9    16    17   ar
    10    17    18    1
    11    17    19   ar
    12    19    20    1
    13     5     6   ar
    14     6     7    1
    15     6     8   ar
    16     8     2   ar
    17    19    13   ar
    18     1     9    1
    19     1    10    1
    20     7    11    1
    21     7    12    1
@<TRIPOS>MOLECULE
*****
 20 21 0 0 0
SMALL
GASTEIGER

@<TRIPOS>ATOM
      1 N         139.8545  139.4191  171.4604 N.pl3   1  UNL1       -0.3262
      2 C         140.6273  139.8001  170.2326 C.ar    1  UNL1        0.2341
      3 N         142.1250  139.7184  170.2337 N.ar    1  UNL1       -0.1128
      4 N         142.8978  140.0994  169.0058 N.ar    1  UNL1       -0.1424
      5 C         142.1729  140.5621  167.7769 C.ar    1  UNL1        0.1348
      6 C         140.6751  140.6437  167.7758 C.ar    1  UNL1        0.1479
      7 N         139.9501  141.1063  166.5468 N.pl3   1  UNL1       -0.3413
      8 N         139.9023  140.2627  169.0036 N.ar    1  UNL1       -0.1967
      9 H         140.3303  139.1154  172.2670 H       1  UNL1        0.1452
     10 H         138.8715  139.4726  171.4597 H       1  UNL1        0.1452
     11 H         140.4573  141.3564  165.7409 H       1  UNL1        0.1438
     12 H         138.9670  141.1599  166.5461 H       1  UNL1        0.1438
     13 C         142.9457  140.9431  166.5490 C.ar    1  UNL1        0.0336
     14 C         143.3850  142.3634  166.3500 C.ar    1  UNL1        0.0025
     15 C         144.1578  142.7444  165.1221 C.ar    1  UNL1        0.0010
     16 C         144.4912  141.7051  164.0933 C.ar    1  UNL1        0.0122
     17 C         144.0519  140.2847  164.2923 C.ar    1  UNL1        0.0682
     18 CL        144.3854  139.2453  163.2634 Cl      1  UNL1       -0.0814
     19 C         143.2791  139.9037  165.5202 C.ar    1  UNL1        0.0698
     20 CL        142.8398  138.4833  165.7191 Cl      1  UNL1       -0.0813
@<TRIPOS>BOND
     1     1     2    1
     2     2     3   ar
     3     3     4   ar
     4     4     5   ar
     5     5    13    1
     6    13    14   ar
     7    14    15   ar
     8    15    16   ar
     9    16    17   ar
    10    17    18    1
    11    17    19   ar
    12    19    20    1
    13     5     6   ar
    14     6     7    1
    15     6     8   ar
    16     8     2   ar
    17    19    13   ar
    18     1     9    1
    19     1    10    1
    20     7    11    1
    21     7    12    1
@<TRIPOS>MOLECULE
*****
 20 21 0 0 0
SMALL
GASTEIGER

@<TRIPOS>ATOM
      1 N         140.0329  142.5207  171.6566 N.pl3   1  UNL1       -0.3262
      2 C         139.9418  141.8864  170.3004 C.ar    1  UNL1        0.2341
      3 N         139.3161  140.5319  170.1464 N.ar    1  UNL1       -0.1128
      4 N         139.2249  139.8976  168.7901 N.ar    1  UNL1       -0.1424
      5 C         139.7596  140.6178  167.5879 C.ar    1  UNL1        0.1348
      6 C         140.3853  141.9723  167.7419 C.ar    1  UNL1        0.1479
      7 N         140.9199  142.6926  166.5396 N.pl3   1  UNL1       -0.3413
      8 N         140.4764  142.6066  169.0981 N.ar    1  UNL1       -0.1967
      9 H         139.6820  142.0480  172.4457 H       1  UNL1        0.1452
     10 H         140.4436  143.4097  171.7577 H       1  UNL1        0.1452
     11 H         140.8602  142.2763  165.6494 H       1  UNL1        0.1438
     12 H         141.3306  143.5816  166.6407 H       1  UNL1        0.1438
     13 C         139.6684  139.9835  166.2317 C.ar    1  UNL1        0.0336
     14 C         138.4275  140.1529  165.4063 C.ar    1  UNL1        0.0025
     15 C         138.3364  139.5186  164.0501 C.ar    1  UNL1        0.0010
     16 C         139.4862  138.7149  163.5192 C.ar    1  UNL1        0.0122
     17 C         140.7272  138.5456  164.3445 C.ar    1  UNL1        0.0682
     18 CL        141.8772  137.7419  163.8136 Cl      1  UNL1       -0.0814
     19 C         140.8183  139.1799  165.7008 C.ar    1  UNL1        0.0698
     20 CL        142.0594  139.0105  166.5261 Cl      1  UNL1       -0.0813
@<TRIPOS>BOND
     1     1     2    1
     2     2     3   ar
     3     3     4   ar
     4     4     5   ar
     5     5    13    1
     6    13    14   ar
     7    14    15   ar
     8    15    16   ar
     9    16    17   ar
    10    17    18    1
    11    17    19   ar
    12    19    20    1
    13     5     6   ar
    14     6     7    1
    15     6     8   ar
    16     8     2   ar
    17    19    13   ar
    18     1     9    1
    19     1    10    1
    20     7    11    1
    21     7    12    1
