@<TRIPOS>MOLECULE
*****
 32 35 0 0 0
SMALL
GASTEIGER

@<TRIPOS>ATOM
      1 N         140.2850  137.9521  162.9775 N.3     1  UNL1       -0.2638
      2 C         139.0041  138.4919  162.4137 C.3     1  UNL1        0.0740
      3 C         138.7201  138.9567  161.0161 C.3     1  UNL1        0.0347
      4 C         139.6467  138.9965  159.8371 C.3     1  UNL1        0.0741
      5 N         141.0863  138.5813  159.7647 N.3     1  UNL1       -0.2610
      6 C         141.9548  138.0238  160.8532 C.3     1  UNL1        0.0901
      7 C         141.5982  137.7437  162.2831 C.3     1  UNL1        0.0900
      8 C         140.2479  137.5700  164.4275 C.3     1  UNL1        0.1588
      9 O         139.4894  139.3539  166.1576 O.2     1  UNL1       -0.2733
     10 C         140.5845  138.5852  165.4794 C.2     1  UNL1        0.2425
     11 N         142.0161  138.8315  165.8530 N.am    1  UNL1       -0.2828
     12 H         142.7348  138.3270  165.4079 H       1  UNL1        0.1549
     13 C         142.3527  139.8466  166.9048 C.ar    1  UNL1        0.0503
     14 C         142.4018  139.4427  168.3486 C.ar    1  UNL1        0.0146
     15 C         142.7384  140.4578  169.4004 C.ar    1  UNL1        0.0051
     16 C         143.0259  141.8767  169.0085 C.ar    1  UNL1        0.0715
     17 C         142.9768  142.2808  167.5647 C.ar    1  UNL1        0.0051
     18 C         142.6402  141.2657  166.5129 C.ar    1  UNL1        0.0146
     19 C         143.3625  142.8919  170.0603 C.3     1  UNL1        0.4186
     20 F         143.6991  143.9070  171.1121 F       1  UNL1       -0.1659
     21 F         141.9192  143.2936  170.1345 F       1  UNL1       -0.1659
     22 F         144.8058  142.4902  169.9862 F       1  UNL1       -0.1659
     23 C         141.7444  138.7454  158.4268 C.3     1  UNL1        0.1977
     24 C         141.9533  137.5521  157.5423 C.2     1  UNL1        0.3675
     25 N         141.0782  137.1405  156.3957 N.2     1  UNL1       -0.0337
     26 C         141.6580  135.8948  155.7939 C.2     1  UNL1        0.2318
     27 C         141.2222  135.0405  154.6405 C.2     1  UNL1        0.0498
     28 C         142.0198  133.8279  154.2620 C.2     1  UNL1       -0.0002
     29 C         143.2532  133.4696  155.0367 C.2     1  UNL1       -0.0172
     30 C         143.6890  134.3239  156.1900 C.3     1  UNL1        0.1037
     31 C         142.8914  135.5365  156.5686 C.2     1  UNL1        0.2175
     32 N         143.0739  136.5607  157.6492 N.2     1  UNL1       -0.0375
@<TRIPOS>BOND
     1     9    10    2
     2    10     8    1
     3     8     1    1
     4     1     2    1
     5     2     3    1
     6     3     4    1
     7     4     5    1
     8     5    23    1
     9    23    24    1
    10    24    25    2
    11    25    26    1
    12    26    27    2
    13    27    28    1
    14    28    29    2
    15    29    30    1
    16    30    31    1
    17    31    32    2
    18     5     6    1
    19     6     7    1
    20    10    11   am
    21    11    13    1
    22    13    14   ar
    23    14    15   ar
    24    15    16   ar
    25    16    19    1
    26    19    20    1
    27    19    21    1
    28    19    22    1
    29    16    17   ar
    30    17    18   ar
    31     7     1    1
    32    18    13   ar
    33    32    24    1
    34    31    26    1
    35    11    12    1
@<TRIPOS>MOLECULE
*****
 32 35 0 0 0
SMALL
GASTEIGER

@<TRIPOS>ATOM
      1 N         139.7556  138.8636  157.9911 N.3     1  UNL1       -0.2638
      2 C         139.8574  138.1617  156.6694 C.3     1  UNL1        0.0740
      3 C         139.0308  138.3679  155.4349 C.3     1  UNL1        0.0347
      4 C         137.8981  139.3270  155.2171 C.3     1  UNL1        0.0741
      5 N         137.3125  140.3168  156.1801 N.3     1  UNL1       -0.2610
      6 C         137.7148  140.5919  157.5987 C.3     1  UNL1        0.0901
      7 C         138.8021  139.9452  158.4047 C.3     1  UNL1        0.0900
      8 C         140.7372  138.4262  159.0377 C.3     1  UNL1        0.1588
      9 O         141.3061  139.6680  161.2478 O.2     1  UNL1       -0.2733
     10 C         140.4570  138.6933  160.4870 C.2     1  UNL1        0.2425
     11 N         139.3278  137.9855  161.1752 N.am    1  UNL1       -0.2828
     12 H         138.7705  137.3458  160.6759 H       1  UNL1        0.1549
     13 C         139.0476  138.2526  162.6244 C.ar    1  UNL1        0.0503
     14 C         139.4304  137.2388  163.6616 C.ar    1  UNL1        0.0146
     15 C         139.1502  137.5058  165.1108 C.ar    1  UNL1        0.0051
     16 C         138.4873  138.7866  165.5229 C.ar    1  UNL1        0.0715
     17 C         138.1044  139.8005  164.4858 C.ar    1  UNL1        0.0051
     18 C         138.3846  139.5334  163.0366 C.ar    1  UNL1        0.0146
     19 C         138.2071  139.0536  166.9722 C.3     1  UNL1        0.4186
     20 F         137.9269  139.3206  168.4214 F       1  UNL1       -0.1659
     21 F         137.4547  137.7593  167.0652 F       1  UNL1       -0.1659
     22 F         138.9594  140.3479  166.8791 F       1  UNL1       -0.1659
     23 C         136.1740  141.1403  155.6551 C.3     1  UNL1        0.1977
     24 C         134.7610  140.7715  155.9978 C.2     1  UNL1        0.3675
     25 N         133.5233  141.3688  155.3966 N.2     1  UNL1       -0.0337
     26 C         132.3350  140.7071  156.0291 C.2     1  UNL1        0.2318
     27 C         130.8597  140.8908  155.8298 C.2     1  UNL1        0.0498
     28 C         129.8877  140.0683  156.6226 C.2     1  UNL1       -0.0002
     29 C         130.3909  139.0620  157.6146 C.2     1  UNL1       -0.0172
     30 C         131.8662  138.8782  157.8139 C.3     1  UNL1        0.1037
     31 C         132.8382  139.7008  157.0211 C.2     1  UNL1        0.2175
     32 N         134.3376  139.7406  157.0017 N.2     1  UNL1       -0.0375
@<TRIPOS>BOND
     1     9    10    2
     2    10     8    1
     3     8     1    1
     4     1     2    1
     5     2     3    1
     6     3     4    1
     7     4     5    1
     8     5    23    1
     9    23    24    1
    10    24    25    2
    11    25    26    1
    12    26    27    2
    13    27    28    1
    14    28    29    2
    15    29    30    1
    16    30    31    1
    17    31    32    2
    18     5     6    1
    19     6     7    1
    20    10    11   am
    21    11    13    1
    22    13    14   ar
    23    14    15   ar
    24    15    16   ar
    25    16    19    1
    26    19    20    1
    27    19    21    1
    28    19    22    1
    29    16    17   ar
    30    17    18   ar
    31     7     1    1
    32    18    13   ar
    33    32    24    1
    34    31    26    1
    35    11    12    1
@<TRIPOS>MOLECULE
*****
 32 35 0 0 0
SMALL
GASTEIGER

@<TRIPOS>ATOM
      1 N         144.4812  140.4776  162.5003 N.3     1  UNL1       -0.2638
      2 C         144.8226  141.9209  162.2763 C.3     1  UNL1        0.0740
      3 C         144.6774  142.7327  161.0233 C.3     1  UNL1        0.0347
      4 C         144.1550  142.3017  159.6849 C.3     1  UNL1        0.0741
      5 N         143.6487  140.9523  159.2689 N.3     1  UNL1       -0.2610
      6 C         143.5398  139.7008  160.0886 C.3     1  UNL1        0.0901
      7 C         143.9103  139.4895  161.5267 C.3     1  UNL1        0.0900
      8 C         144.7456  139.9529  163.8804 C.3     1  UNL1        0.1588
      9 O         142.9417  139.2559  165.6156 O.2     1  UNL1       -0.2733
     10 C         143.8215  140.3078  165.0075 C.2     1  UNL1        0.2425
     11 N         143.7772  141.7144  165.5264 N.am    1  UNL1       -0.2828
     12 H         144.3546  142.4047  165.1272 H       1  UNL1        0.1549
     13 C         142.8531  142.0693  166.6534 C.ar    1  UNL1        0.0503
     14 C         143.3750  142.1378  168.0580 C.ar    1  UNL1        0.0146
     15 C         142.4510  142.4927  169.1850 C.ar    1  UNL1        0.0051
     16 C         141.0051  142.7791  168.9074 C.ar    1  UNL1        0.0715
     17 C         140.4830  142.7106  167.5028 C.ar    1  UNL1        0.0051
     18 C         141.4071  142.3557  166.3758 C.ar    1  UNL1        0.0146
     19 C         140.0810  143.1340  170.0345 C.3     1  UNL1        0.4186
     20 F         139.1569  143.4889  171.1616 F       1  UNL1       -0.1659
     21 F         140.6476  144.5225  170.0619 F       1  UNL1       -0.1659
     22 F         139.5143  141.7454  170.0072 F       1  UNL1       -0.1659
     23 C         143.1908  140.8396  157.8450 C.3     1  UNL1        0.1977
     24 C         143.0073  139.4880  157.2209 C.2     1  UNL1        0.3675
     25 N         144.0876  138.6438  156.6124 N.2     1  UNL1       -0.0337
     26 C         143.4593  137.3773  156.1111 C.2     1  UNL1        0.2318
     27 C         144.0347  136.1761  155.4213 C.2     1  UNL1        0.0498
     28 C         143.1415  135.0363  155.0302 C.2     1  UNL1       -0.0002
     29 C         141.6728  135.0978  155.3290 C.2     1  UNL1       -0.0172
     30 C         141.0974  136.2990  156.0188 C.3     1  UNL1        0.1037
     31 C         141.9906  137.4388  156.4099 C.2     1  UNL1        0.2175
     32 N         141.7113  138.7432  157.0957 N.2     1  UNL1       -0.0375
@<TRIPOS>BOND
     1     9    10    2
     2    10     8    1
     3     8     1    1
     4     1     2    1
     5     2     3    1
     6     3     4    1
     7     4     5    1
     8     5    23    1
     9    23    24    1
    10    24    25    2
    11    25    26    1
    12    26    27    2
    13    27    28    1
    14    28    29    2
    15    29    30    1
    16    30    31    1
    17    31    32    2
    18     5     6    1
    19     6     7    1
    20    10    11   am
    21    11    13    1
    22    13    14   ar
    23    14    15   ar
    24    15    16   ar
    25    16    19    1
    26    19    20    1
    27    19    21    1
    28    19    22    1
    29    16    17   ar
    30    17    18   ar
    31     7     1    1
    32    18    13   ar
    33    32    24    1
    34    31    26    1
    35    11    12    1
@<TRIPOS>MOLECULE
*****
 32 35 0 0 0
SMALL
GASTEIGER

@<TRIPOS>ATOM
      1 N         143.0912  138.6639  158.2509 N.3     1  UNL1       -0.2638
      2 C         143.4549  140.1154  158.3544 C.3     1  UNL1        0.0740
      3 C         143.7757  140.9138  159.5830 C.3     1  UNL1        0.0347
      4 C         143.8122  140.4579  161.0116 C.3     1  UNL1        0.0741
      5 N         143.5368  139.0909  161.5644 N.3     1  UNL1       -0.2610
      6 C         143.1569  137.8423  160.8251 C.3     1  UNL1        0.0901
      7 C         142.9586  137.6522  159.3505 C.3     1  UNL1        0.0900
      8 C         142.8249  138.1568  156.8645 C.3     1  UNL1        0.1588
      9 O         144.6286  136.7254  155.6612 O.2     1  UNL1       -0.2733
     10 C         143.3511  136.8171  156.4420 C.2     1  UNL1        0.2425
     11 N         142.5999  135.5693  156.8003 N.am    1  UNL1       -0.2828
     12 H         141.7614  135.6296  157.3128 H       1  UNL1        0.1549
     13 C         143.1260  134.2297  156.3778 C.ar    1  UNL1        0.0503
     14 C         142.7325  133.6541  155.0497 C.ar    1  UNL1        0.0146
     15 C         143.2586  132.3145  154.6272 C.ar    1  UNL1        0.0051
     16 C         144.1784  131.5504  155.5328 C.ar    1  UNL1        0.0715
     17 C         144.5721  132.1260  156.8609 C.ar    1  UNL1        0.0051
     18 C         144.0459  133.4656  157.2834 C.ar    1  UNL1        0.0146
     19 C         144.7046  130.2107  155.1103 C.3     1  UNL1        0.4186
     20 F         145.2308  128.8711  154.6878 F       1  UNL1       -0.1659
     21 F         144.9820  129.8675  156.5439 F       1  UNL1       -0.1659
     22 F         144.4273  130.5539  153.6766 F       1  UNL1       -0.1659
     23 C         143.6572  138.9546  163.0533 C.3     1  UNL1        0.1977
     24 C         142.4230  138.9119  163.9048 C.2     1  UNL1        0.3675
     25 N         141.2582  137.9845  163.7232 N.2     1  UNL1       -0.0337
     26 C         140.2522  138.2886  164.7935 C.2     1  UNL1        0.2318
     27 C         138.9119  137.6940  165.1093 C.2     1  UNL1        0.0498
     28 C         138.1147  138.2147  166.2683 C.2     1  UNL1       -0.0002
     29 C         138.6579  139.3300  167.1115 C.2     1  UNL1       -0.0172
     30 C         139.9982  139.9246  166.7957 C.3     1  UNL1        0.1037
     31 C         140.7954  139.4039  165.6367 C.2     1  UNL1        0.2175
     32 N         142.1370  139.7891  165.0875 N.2     1  UNL1       -0.0375
@<TRIPOS>BOND
     1     9    10    2
     2    10     8    1
     3     8     1    1
     4     1     2    1
     5     2     3    1
     6     3     4    1
     7     4     5    1
     8     5    23    1
     9    23    24    1
    10    24    25    2
    11    25    26    1
    12    26    27    2
    13    27    28    1
    14    28    29    2
    15    29    30    1
    16    30    31    1
    17    31    32    2
    18     5     6    1
    19     6     7    1
    20    10    11   am
    21    11    13    1
    22    13    14   ar
    23    14    15   ar
    24    15    16   ar
    25    16    19    1
    26    19    20    1
    27    19    21    1
    28    19    22    1
    29    16    17   ar
    30    17    18   ar
    31     7     1    1
    32    18    13   ar
    33    32    24    1
    34    31    26    1
    35    11    12    1
@<TRIPOS>MOLECULE
*****
 32 35 0 0 0
SMALL
GASTEIGER

@<TRIPOS>ATOM
      1 N         144.8282  141.6081  162.3933 N.3     1  UNL1       -0.2638
      2 C         144.3079  140.2021  162.4411 C.3     1  UNL1        0.0740
      3 C         143.6980  139.3925  161.3354 C.3     1  UNL1        0.0347
      4 C         143.4577  139.7891  159.9088 C.3     1  UNL1        0.0741
      5 N         143.7680  141.0932  159.2356 N.3     1  UNL1       -0.2610
      6 C         144.3952  142.3227  159.8227 C.3     1  UNL1        0.0901
      7 C         144.8671  142.5519  161.2281 C.3     1  UNL1        0.0900
      8 C         145.3830  142.1409  163.6811 C.3     1  UNL1        0.1588
      9 O         144.1974  144.0297  165.0142 O.2     1  UNL1       -0.2733
     10 C         144.4536  142.5708  164.7772 C.2     1  UNL1        0.2425
     11 N         143.7804  141.5419  165.6362 N.am    1  UNL1       -0.2828
     12 H         143.9485  140.5845  165.4807 H       1  UNL1        0.1549
     13 C         142.8510  141.9718  166.7323 C.ar    1  UNL1        0.0503
     14 C         141.4105  142.2562  166.4258 C.ar    1  UNL1        0.0146
     15 C         140.4811  142.6861  167.5219 C.ar    1  UNL1        0.0051
     16 C         140.9922  142.8316  168.9245 C.ar    1  UNL1        0.0715
     17 C         142.4328  142.5473  169.2311 C.ar    1  UNL1        0.0051
     18 C         143.3621  142.1174  168.1350 C.ar    1  UNL1        0.0146
     19 C         140.0627  143.2616  170.0206 C.3     1  UNL1        0.4186
     20 F         139.1334  143.6915  171.1167 F       1  UNL1       -0.1659
     21 F         140.6572  144.6383  169.9847 F       1  UNL1       -0.1659
     22 F         139.4683  141.8849  170.0566 F       1  UNL1       -0.1659
     23 C         143.4028  141.1790  157.7833 C.3     1  UNL1        0.1977
     24 C         144.4021  141.6887  156.7875 C.2     1  UNL1        0.3675
     25 N         144.1415  142.7109  155.7211 N.2     1  UNL1       -0.0337
     26 C         145.4158  142.9197  154.9578 C.2     1  UNL1        0.2318
     27 C         145.7571  143.8077  153.7981 C.2     1  UNL1        0.0498
     28 C         147.1465  143.8025  153.2330 C.2     1  UNL1       -0.0002
     29 C         148.1947  142.9092  153.8276 C.2     1  UNL1       -0.0172
     30 C         147.8533  142.0212  154.9873 C.3     1  UNL1        0.1037
     31 C         146.4639  142.0264  155.5524 C.2     1  UNL1        0.2175
     32 N         145.8374  141.2656  156.6832 N.2     1  UNL1       -0.0375
@<TRIPOS>BOND
     1     9    10    2
     2    10     8    1
     3     8     1    1
     4     1     2    1
     5     2     3    1
     6     3     4    1
     7     4     5    1
     8     5    23    1
     9    23    24    1
    10    24    25    2
    11    25    26    1
    12    26    27    2
    13    27    28    1
    14    28    29    2
    15    29    30    1
    16    30    31    1
    17    31    32    2
    18     5     6    1
    19     6     7    1
    20    10    11   am
    21    11    13    1
    22    13    14   ar
    23    14    15   ar
    24    15    16   ar
    25    16    19    1
    26    19    20    1
    27    19    21    1
    28    19    22    1
    29    16    17   ar
    30    17    18   ar
    31     7     1    1
    32    18    13   ar
    33    32    24    1
    34    31    26    1
    35    11    12    1
@<TRIPOS>MOLECULE
*****
 32 35 0 0 0
SMALL
GASTEIGER

@<TRIPOS>ATOM
      1 N         144.4364  140.5252  162.4999 N.3     1  UNL1       -0.2638
      2 C         144.0985  139.0659  162.5783 C.3     1  UNL1        0.0740
      3 C         143.4870  138.1897  161.5255 C.3     1  UNL1        0.0347
      4 C         143.0624  138.5563  160.1343 C.3     1  UNL1        0.0741
      5 N         143.1444  139.8898  159.4523 N.3     1  UNL1       -0.2610
      6 C         143.6713  141.1860  159.9931 C.3     1  UNL1        0.0901
      7 C         144.2463  141.4688  161.3494 C.3     1  UNL1        0.0900
      8 C         145.0449  141.1197  163.7353 C.3     1  UNL1        0.1588
      9 O         143.8838  143.1719  164.8265 O.2     1  UNL1       -0.2733
     10 C         144.1629  141.6983  164.8019 C.2     1  UNL1        0.2425
     11 N         143.5601  140.8033  165.8437 N.am    1  UNL1       -0.2828
     12 H         143.7433  139.8361  165.8275 H       1  UNL1        0.1549
     13 C         142.6781  141.3818  166.9102 C.ar    1  UNL1        0.0503
     14 C         141.1865  141.3198  166.7653 C.ar    1  UNL1        0.0146
     15 C         140.3045  141.8983  167.8318 C.ar    1  UNL1        0.0051
     16 C         140.9142  142.5390  169.0432 C.ar    1  UNL1        0.0715
     17 C         142.4060  142.6011  169.1882 C.ar    1  UNL1        0.0051
     18 C         143.2879  142.0225  168.1218 C.ar    1  UNL1        0.0146
     19 C         140.0322  143.1176  170.1098 C.3     1  UNL1        0.4186
     20 F         139.1503  143.6961  171.1763 F       1  UNL1       -0.1659
     21 F         140.7494  144.4296  169.9910 F       1  UNL1       -0.1659
     22 F         139.3151  141.8055  170.2285 F       1  UNL1       -0.1659
     23 C         142.6318  139.9329  158.0434 C.3     1  UNL1        0.1977
     24 C         142.5152  138.6660  157.2487 C.2     1  UNL1        0.3675
     25 N         141.2378  138.0275  156.7899 N.2     1  UNL1       -0.0337
     26 C         141.5886  136.7821  156.0309 C.2     1  UNL1        0.2318
     27 C         140.7405  135.7506  155.3478 C.2     1  UNL1        0.0498
     28 C         141.3866  134.5880  154.6545 C.2     1  UNL1       -0.0002
     29 C         142.8808  134.4569  154.6442 C.2     1  UNL1       -0.0172
     30 C         143.7289  135.4884  155.3272 C.3     1  UNL1        0.1037
     31 C         143.0828  136.6510  156.0206 C.2     1  UNL1        0.2175
     32 N         143.6554  137.8153  156.7732 N.2     1  UNL1       -0.0375
@<TRIPOS>BOND
     1     9    10    2
     2    10     8    1
     3     8     1    1
     4     1     2    1
     5     2     3    1
     6     3     4    1
     7     4     5    1
     8     5    23    1
     9    23    24    1
    10    24    25    2
    11    25    26    1
    12    26    27    2
    13    27    28    1
    14    28    29    2
    15    29    30    1
    16    30    31    1
    17    31    32    2
    18     5     6    1
    19     6     7    1
    20    10    11   am
    21    11    13    1
    22    13    14   ar
    23    14    15   ar
    24    15    16   ar
    25    16    19    1
    26    19    20    1
    27    19    21    1
    28    19    22    1
    29    16    17   ar
    30    17    18   ar
    31     7     1    1
    32    18    13   ar
    33    32    24    1
    34    31    26    1
    35    11    12    1
@<TRIPOS>MOLECULE
*****
 32 35 0 0 0
SMALL
GASTEIGER

@<TRIPOS>ATOM
      1 N         140.1185  138.9811  160.8785 N.3     1  UNL1       -0.2638
      2 C         141.3718  138.6180  161.6183 C.3     1  UNL1        0.0740
      3 C         142.6333  138.0110  161.0796 C.3     1  UNL1        0.0347
      4 C         142.9530  137.6171  159.6679 C.3     1  UNL1        0.0741
      5 N         142.0902  137.7331  158.4463 N.3     1  UNL1       -0.2610
      6 C         140.6946  138.2715  158.3347 C.3     1  UNL1        0.0901
      7 C         139.8171  138.8269  159.4171 C.3     1  UNL1        0.0900
      8 C         139.0215  139.5773  161.7098 C.3     1  UNL1        0.1588
      9 O         139.6223  141.3386  163.5229 O.2     1  UNL1       -0.2733
     10 C         139.2754  139.9288  163.1459 C.2     1  UNL1        0.2425
     11 N         139.1823  138.8705  164.2047 N.am    1  UNL1       -0.2828
     12 H         138.9546  137.9453  163.9572 H       1  UNL1        0.1549
     13 C         139.4361  139.2220  165.6407 C.ar    1  UNL1        0.0503
     14 C         138.3028  139.2267  166.6234 C.ar    1  UNL1        0.0146
     15 C         138.5566  139.5782  168.0593 C.ar    1  UNL1        0.0051
     16 C         139.9437  139.9250  168.5126 C.ar    1  UNL1        0.0715
     17 C         141.0771  139.9204  167.5300 C.ar    1  UNL1        0.0051
     18 C         140.8233  139.5689  166.0941 C.ar    1  UNL1        0.0146
     19 C         140.1975  140.2765  169.9487 C.3     1  UNL1        0.4186
     20 F         140.4513  140.6280  171.3847 F       1  UNL1       -0.1659
     21 F         138.9674  141.1348  169.9561 F       1  UNL1       -0.1659
     22 F         141.4277  139.4182  169.9414 F       1  UNL1       -0.1659
     23 C         142.7042  137.2462  157.1673 C.3     1  UNL1        0.1977
     24 C         142.5756  135.8042  156.7749 C.2     1  UNL1        0.3675
     25 N         141.7101  135.2633  155.6757 N.2     1  UNL1       -0.0337
     26 C         141.8896  133.7747  155.6342 C.2     1  UNL1        0.2318
     27 C         141.2900  132.7155  154.7576 C.2     1  UNL1        0.0498
     28 C         141.6669  131.2771  154.9546 C.2     1  UNL1       -0.0002
     29 C         142.6434  130.8979  156.0282 C.2     1  UNL1       -0.0172
     30 C         143.2430  131.9571  156.9048 C.3     1  UNL1        0.1037
     31 C         142.8661  133.3955  156.7079 C.2     1  UNL1        0.2175
     32 N         143.2901  134.6498  157.4128 N.2     1  UNL1       -0.0375
@<TRIPOS>BOND
     1     9    10    2
     2    10     8    1
     3     8     1    1
     4     1     2    1
     5     2     3    1
     6     3     4    1
     7     4     5    1
     8     5    23    1
     9    23    24    1
    10    24    25    2
    11    25    26    1
    12    26    27    2
    13    27    28    1
    14    28    29    2
    15    29    30    1
    16    30    31    1
    17    31    32    2
    18     5     6    1
    19     6     7    1
    20    10    11   am
    21    11    13    1
    22    13    14   ar
    23    14    15   ar
    24    15    16   ar
    25    16    19    1
    26    19    20    1
    27    19    21    1
    28    19    22    1
    29    16    17   ar
    30    17    18   ar
    31     7     1    1
    32    18    13   ar
    33    32    24    1
    34    31    26    1
    35    11    12    1
@<TRIPOS>MOLECULE
*****
 32 35 0 0 0
SMALL
GASTEIGER

@<TRIPOS>ATOM
      1 N         141.9571  138.1460  158.1598 N.3     1  UNL1       -0.2638
      2 C         142.8195  137.8521  159.3514 C.3     1  UNL1        0.0740
      3 C         142.4562  137.9093  160.8056 C.3     1  UNL1        0.0347
      4 C         141.1408  138.2743  161.4274 C.3     1  UNL1        0.0741
      5 N         139.8638  138.6724  160.7484 N.3     1  UNL1       -0.2610
      6 C         139.5868  138.8038  159.2801 C.3     1  UNL1        0.0901
      7 C         140.5184  138.5695  158.1280 C.3     1  UNL1        0.0900
      8 C         142.6211  137.9965  156.8231 C.3     1  UNL1        0.1588
      9 O         144.5002  136.6210  155.6709 O.2     1  UNL1       -0.2733
     10 C         143.1998  136.6735  156.4168 C.2     1  UNL1        0.2425
     11 N         142.4781  135.4033  156.7565 N.am    1  UNL1       -0.2828
     12 H         141.6246  135.4378  157.2460 H       1  UNL1        0.1549
     13 C         143.0568  134.0803  156.3502 C.ar    1  UNL1        0.0503
     14 C         144.0313  133.3798  157.2500 C.ar    1  UNL1        0.0146
     15 C         144.6099  132.0569  156.8438 C.ar    1  UNL1        0.0051
     16 C         144.2140  131.4345  155.5378 C.ar    1  UNL1        0.0715
     17 C         143.2395  132.1349  154.6379 C.ar    1  UNL1        0.0051
     18 C         142.6608  133.4578  155.0442 C.ar    1  UNL1        0.0146
     19 C         144.7927  130.1115  155.1316 C.3     1  UNL1        0.4186
     20 F         145.3714  128.7885  154.7253 F       1  UNL1       -0.1659
     21 F         145.0771  129.7942  156.5698 F       1  UNL1       -0.1659
     22 F         144.5083  130.4287  153.6933 F       1  UNL1       -0.1659
     23 C         138.7115  138.9797  161.6582 C.3     1  UNL1        0.1977
     24 C         138.7353  140.2160  162.5073 C.2     1  UNL1        0.3675
     25 N         137.9443  141.4673  162.2653 N.2     1  UNL1       -0.0337
     26 C         138.2744  142.4427  163.3560 C.2     1  UNL1        0.2318
     27 C         137.7976  143.8375  163.6333 C.2     1  UNL1        0.0498
     28 C         138.3157  144.5839  164.8267 C.2     1  UNL1       -0.0002
     29 C         139.3108  143.9354  165.7429 C.2     1  UNL1       -0.0172
     30 C         139.7877  142.5406  165.4656 C.3     1  UNL1        0.1037
     31 C         139.2695  141.7942  164.2721 C.2     1  UNL1        0.2175
     32 N         139.5543  140.4181  163.7476 N.2     1  UNL1       -0.0375
@<TRIPOS>BOND
     1     9    10    2
     2    10     8    1
     3     8     1    1
     4     1     2    1
     5     2     3    1
     6     3     4    1
     7     4     5    1
     8     5    23    1
     9    23    24    1
    10    24    25    2
    11    25    26    1
    12    26    27    2
    13    27    28    1
    14    28    29    2
    15    29    30    1
    16    30    31    1
    17    31    32    2
    18     5     6    1
    19     6     7    1
    20    10    11   am
    21    11    13    1
    22    13    14   ar
    23    14    15   ar
    24    15    16   ar
    25    16    19    1
    26    19    20    1
    27    19    21    1
    28    19    22    1
    29    16    17   ar
    30    17    18   ar
    31     7     1    1
    32    18    13   ar
    33    32    24    1
    34    31    26    1
    35    11    12    1
@<TRIPOS>MOLECULE
*****
 32 35 0 0 0
SMALL
GASTEIGER

@<TRIPOS>ATOM
      1 N         140.9455  140.2581  158.7867 N.3     1  UNL1       -0.2638
      2 C         142.2610  140.6056  158.1555 C.3     1  UNL1        0.0740
      3 C         143.0096  139.8663  157.0864 C.3     1  UNL1        0.0347
      4 C         142.6276  138.5969  156.3844 C.3     1  UNL1        0.0741
      5 N         141.4025  137.7532  156.5782 N.3     1  UNL1       -0.2610
      6 C         140.2570  137.9707  157.5219 C.3     1  UNL1        0.0901
      7 C         140.0535  139.0854  158.5048 C.3     1  UNL1        0.0900
      8 C         140.4571  141.2089  159.8391 C.3     1  UNL1        0.1588
      9 O         138.2360  140.8430  161.1365 O.2     1  UNL1       -0.2733
     10 C         139.7248  140.6870  161.0397 C.2     1  UNL1        0.2425
     11 N         140.4811  140.0091  162.1434 N.am    1  UNL1       -0.2828
     12 H         141.4582  139.9067  162.0799 H       1  UNL1        0.1549
     13 C         139.7488  139.4873  163.3440 C.ar    1  UNL1        0.0503
     14 C         139.0492  140.4393  164.2682 C.ar    1  UNL1        0.0146
     15 C         138.3169  139.9174  165.4688 C.ar    1  UNL1        0.0051
     16 C         138.2842  138.4435  165.7451 C.ar    1  UNL1        0.0715
     17 C         138.9838  137.4914  164.8209 C.ar    1  UNL1        0.0051
     18 C         139.7161  138.0133  163.6204 C.ar    1  UNL1        0.0146
     19 C         137.5518  137.9216  166.9457 C.3     1  UNL1        0.4186
     20 F         136.8194  137.3998  168.1463 F       1  UNL1       -0.1659
     21 F         137.6398  139.2745  167.5875 F       1  UNL1       -0.1659
     22 F         137.4638  136.5687  166.3040 F       1  UNL1       -0.1659
     23 C         141.3109  136.5306  155.7142 C.3     1  UNL1        0.1977
     24 C         142.1922  135.3488  155.9910 C.2     1  UNL1        0.3675
     25 N         142.4150  134.1814  155.0758 N.2     1  UNL1       -0.0337
     26 C         143.3660  133.2380  155.7508 C.2     1  UNL1        0.2318
     27 C         143.9468  131.9224  155.3243 C.2     1  UNL1        0.0498
     28 C         144.8925  131.1912  156.2303 C.2     1  UNL1       -0.0002
     29 C         145.2576  131.7756  157.5627 C.2     1  UNL1       -0.0172
     30 C         144.6768  133.0911  157.9891 C.3     1  UNL1        0.1037
     31 C         143.7311  133.8224  157.0832 C.2     1  UNL1        0.2175
     32 N         143.0056  135.1269  157.2316 N.2     1  UNL1       -0.0375
@<TRIPOS>BOND
     1     9    10    2
     2    10     8    1
     3     8     1    1
     4     1     2    1
     5     2     3    1
     6     3     4    1
     7     4     5    1
     8     5    23    1
     9    23    24    1
    10    24    25    2
    11    25    26    1
    12    26    27    2
    13    27    28    1
    14    28    29    2
    15    29    30    1
    16    30    31    1
    17    31    32    2
    18     5     6    1
    19     6     7    1
    20    10    11   am
    21    11    13    1
    22    13    14   ar
    23    14    15   ar
    24    15    16   ar
    25    16    19    1
    26    19    20    1
    27    19    21    1
    28    19    22    1
    29    16    17   ar
    30    17    18   ar
    31     7     1    1
    32    18    13   ar
    33    32    24    1
    34    31    26    1
    35    11    12    1
