@<TRIPOS>MOLECULE
*****
 31 35 0 0 0
SMALL
GASTEIGER

@<TRIPOS>ATOM
      1 C         140.8380  138.8142  160.7978 C.ar    1  UNL1        0.1811
      2 N         140.7311  140.2896  161.0467 N.ar    1  UNL1       -0.2106
      3 C         140.1059  140.7930  162.3139 C.ar    1  UNL1        0.1319
      4 C         139.5877  139.8211  163.3321 C.ar    1  UNL1        0.0491
      5 C         138.9625  140.3245  164.5993 C.ar    1  UNL1        0.0041
      6 C         138.4442  139.3526  165.6175 C.ar    1  UNL1        0.0002
      7 C         138.5511  137.8773  165.3686 C.ar    1  UNL1        0.0015
      8 C         139.1763  137.3739  164.1014 C.ar    1  UNL1        0.0192
      9 C         139.6946  138.3458  163.0832 C.ar    1  UNL1        0.0857
     10 N         140.3198  137.8424  161.8160 N.ar    1  UNL1       -0.2252
     11 C         139.5092  138.9437  157.8201 C.3     1  UNL1        0.1321
     12 N         140.8524  138.3703  158.1619 N.ar    1  UNL1       -0.3046
     13 C         141.8207  137.7557  157.1951 C.ar    1  UNL1        0.1787
     14 N         143.0299  137.3164  157.9662 N.ar    1  UNL1       -0.2222
     15 C         142.8091  137.6594  159.4097 C.ar    1  UNL1        0.1209
     16 C         141.4632  138.3108  159.5306 C.ar    1  UNL1        0.1168
     17 C         138.8556  141.7999  164.8482 C.ar    1  UNL1        0.0001
     18 C         137.7052  142.5753  164.2778 C.ar    1  UNL1        0.0000
     19 C         137.5983  144.0507  164.5267 C.ar    1  UNL1        0.0000
     20 C         138.6418  144.7506  165.3460 C.ar    1  UNL1        0.0000
     21 C         139.7922  143.9751  165.9164 C.ar    1  UNL1        0.0000
     22 C         139.8991  142.4998  165.6675 C.ar    1  UNL1        0.0000
     23 N         139.9990  142.2683  162.5628 N.pl3   1  UNL1       -0.3131
     24 H         139.1870  142.6400  162.9771 H       1  UNL1        0.1485
     25 C         141.1293  143.1774  162.1804 C.3     1  UNL1        0.1348
     26 C         142.2521  143.4242  163.1440 C.ar    1  UNL1        0.0788
     27 C         142.6474  144.8289  163.4910 C.ar    1  UNL1        0.0165
     28 C         143.7702  145.0757  164.4546 C.ar    1  UNL1        0.0029
     29 C         144.4977  143.9178  165.0711 C.ar    1  UNL1        0.0207
     30 C         144.1024  142.5131  164.7240 C.ar    1  UNL1        0.0985
     31 N         142.9796  142.2663  163.7604 N.ar    1  UNL1       -0.2464
@<TRIPOS>BOND
     1    11    12    1
     2    12    13   ar
     3    13    14   ar
     4    14    15   ar
     5    15    16   ar
     6    16     1    1
     7     1     2   ar
     8     2     3   ar
     9     3    23    1
    10    23    25    1
    11    25    26    1
    12    26    27   ar
    13    27    28   ar
    14    28    29   ar
    15    29    30   ar
    16    30    31   ar
    17     3     4   ar
    18     4     5   ar
    19     5    17    1
    20    17    18   ar
    21    18    19   ar
    22    19    20   ar
    23    20    21   ar
    24    21    22   ar
    25     5     6   ar
    26     6     7   ar
    27     7     8   ar
    28     8     9   ar
    29     9    10   ar
    30    16    12   ar
    31    10     1   ar
    32    31    26   ar
    33     9     4   ar
    34    22    17   ar
    35    23    24    1
@<TRIPOS>MOLECULE
*****
 31 35 0 0 0
SMALL
GASTEIGER

@<TRIPOS>ATOM
      1 C         141.6437  138.8375  163.4629 C.ar    1  UNL1        0.1811
      2 N         142.3939  139.7494  164.3880 N.ar    1  UNL1       -0.2106
      3 C         141.8052  140.1188  165.7173 C.ar    1  UNL1        0.1319
      4 C         140.4663  139.5764  166.1215 C.ar    1  UNL1        0.0491
      5 C         139.8777  139.9458  167.4508 C.ar    1  UNL1        0.0041
      6 C         138.5389  139.4034  167.8550 C.ar    1  UNL1        0.0002
      7 C         137.7888  138.4916  166.9299 C.ar    1  UNL1        0.0015
      8 C         138.3774  138.1221  165.6006 C.ar    1  UNL1        0.0192
      9 C         139.7162  138.6645  165.1964 C.ar    1  UNL1        0.0857
     10 N         140.3049  138.2951  163.8671 N.ar    1  UNL1       -0.2252
     11 C         140.0586  138.7856  160.6109 C.3     1  UNL1        0.1321
     12 N         141.5037  138.4442  160.8227 N.ar    1  UNL1       -0.3046
     13 C         142.4740  138.0190  159.7607 C.ar    1  UNL1        0.1787
     14 N         143.8023  137.7801  160.4154 N.ar    1  UNL1       -0.2222
     15 C         143.6530  138.0576  161.8819 C.ar    1  UNL1        0.1209
     16 C         142.2323  138.4680  162.1337 C.ar    1  UNL1        0.1168
     17 C         140.6279  140.8577  168.3759 C.ar    1  UNL1        0.0001
     18 C         141.6283  140.2911  169.3392 C.ar    1  UNL1        0.0000
     19 C         142.3785  141.2030  170.2643 C.ar    1  UNL1        0.0000
     20 C         142.1282  142.6814  170.2260 C.ar    1  UNL1        0.0000
     21 C         141.1277  143.2480  169.2626 C.ar    1  UNL1        0.0000
     22 C         140.3776  142.3362  168.3376 C.ar    1  UNL1        0.0000
     23 N         142.5553  141.0306  166.6424 N.pl3   1  UNL1       -0.3131
     24 H         142.4330  140.9531  167.6162 H       1  UNL1        0.1485
     25 C         143.4919  142.0607  166.0838 C.3     1  UNL1        0.1348
     26 C         142.9621  143.1651  165.2180 C.ar    1  UNL1        0.0788
     27 C         143.9125  144.0740  164.4966 C.ar    1  UNL1        0.0165
     28 C         143.3827  145.1785  163.6308 C.ar    1  UNL1        0.0029
     29 C         141.9026  145.3738  163.4863 C.ar    1  UNL1        0.0207
     30 C         140.9521  144.4648  164.2077 C.ar    1  UNL1        0.0985
     31 N         141.4819  143.3604  165.0735 N.ar    1  UNL1       -0.2464
@<TRIPOS>BOND
     1    11    12    1
     2    12    13   ar
     3    13    14   ar
     4    14    15   ar
     5    15    16   ar
     6    16     1    1
     7     1     2   ar
     8     2     3   ar
     9     3    23    1
    10    23    25    1
    11    25    26    1
    12    26    27   ar
    13    27    28   ar
    14    28    29   ar
    15    29    30   ar
    16    30    31   ar
    17     3     4   ar
    18     4     5   ar
    19     5    17    1
    20    17    18   ar
    21    18    19   ar
    22    19    20   ar
    23    20    21   ar
    24    21    22   ar
    25     5     6   ar
    26     6     7   ar
    27     7     8   ar
    28     8     9   ar
    29     9    10   ar
    30    16    12   ar
    31    10     1   ar
    32    31    26   ar
    33     9     4   ar
    34    22    17   ar
    35    23    24    1
@<TRIPOS>MOLECULE
*****
 31 35 0 0 0
SMALL
GASTEIGER

@<TRIPOS>ATOM
      1 C         138.9203  142.3805  160.1525 C.ar    1  UNL1        0.1811
      2 N         140.3743  142.3684  160.5213 N.ar    1  UNL1       -0.2106
      3 C         140.8126  142.8824  161.8606 C.ar    1  UNL1        0.1319
      4 C         139.7969  143.4085  162.8311 C.ar    1  UNL1        0.0491
      5 C         140.2352  143.9225  164.1704 C.ar    1  UNL1        0.0041
      6 C         139.2197  144.4485  165.1408 C.ar    1  UNL1        0.0002
      7 C         137.7658  144.4606  164.7720 C.ar    1  UNL1        0.0015
      8 C         137.3275  143.9466  163.4327 C.ar    1  UNL1        0.0192
      9 C         138.3431  143.4205  162.4622 C.ar    1  UNL1        0.0857
     10 N         137.9048  142.9065  161.1230 N.ar    1  UNL1       -0.2252
     11 C         139.3662  143.8736  157.2852 C.3     1  UNL1        0.1321
     12 N         138.6870  142.5528  157.4953 N.ar    1  UNL1       -0.3046
     13 C         138.0934  141.6864  156.4242 C.ar    1  UNL1        0.1787
     14 N         137.5217  140.4646  157.0802 N.ar    1  UNL1       -0.2222
     15 C         137.7618  140.5759  158.5567 C.ar    1  UNL1        0.1209
     16 C         138.4820  141.8665  158.8132 C.ar    1  UNL1        0.1168
     17 C         141.6892  143.9104  164.5392 C.ar    1  UNL1        0.0001
     18 C         142.2246  142.8405  165.4439 C.ar    1  UNL1        0.0000
     19 C         143.6786  142.8284  165.8127 C.ar    1  UNL1        0.0000
     20 C         144.5970  143.8863  165.2767 C.ar    1  UNL1        0.0000
     21 C         144.0616  144.9562  164.3720 C.ar    1  UNL1        0.0000
     22 C         142.6077  144.9683  164.0032 C.ar    1  UNL1        0.0000
     23 N         142.2665  142.8703  162.2294 N.pl3   1  UNL1       -0.3131
     24 H         142.6673  143.6504  162.6767 H       1  UNL1        0.1485
     25 C         143.1097  141.6697  161.9167 C.3     1  UNL1        0.1348
     26 C         143.4210  140.6713  162.9919 C.ar    1  UNL1        0.0788
     27 C         144.8412  140.4481  163.4197 C.ar    1  UNL1        0.0165
     28 C         145.1526  139.4496  164.4949 C.ar    1  UNL1        0.0029
     29 C         144.0436  138.6743  165.1424 C.ar    1  UNL1        0.0207
     30 C         142.6233  138.8976  164.7146 C.ar    1  UNL1        0.0985
     31 N         142.3120  139.8960  163.6394 N.ar    1  UNL1       -0.2464
@<TRIPOS>BOND
     1    11    12    1
     2    12    13   ar
     3    13    14   ar
     4    14    15   ar
     5    15    16   ar
     6    16     1    1
     7     1     2   ar
     8     2     3   ar
     9     3    23    1
    10    23    25    1
    11    25    26    1
    12    26    27   ar
    13    27    28   ar
    14    28    29   ar
    15    29    30   ar
    16    30    31   ar
    17     3     4   ar
    18     4     5   ar
    19     5    17    1
    20    17    18   ar
    21    18    19   ar
    22    19    20   ar
    23    20    21   ar
    24    21    22   ar
    25     5     6   ar
    26     6     7   ar
    27     7     8   ar
    28     8     9   ar
    29     9    10   ar
    30    16    12   ar
    31    10     1   ar
    32    31    26   ar
    33     9     4   ar
    34    22    17   ar
    35    23    24    1
@<TRIPOS>MOLECULE
*****
 31 35 0 0 0
SMALL
GASTEIGER

@<TRIPOS>ATOM
      1 C         141.1127  142.2193  167.0067 C.ar    1  UNL1        0.1811
      2 N         141.2575  140.9963  166.1503 N.ar    1  UNL1       -0.2106
      3 C         140.4676  140.8716  164.8812 C.ar    1  UNL1        0.1319
      4 C         139.5329  141.9698  164.4686 C.ar    1  UNL1        0.0491
      5 C         138.7430  141.8451  163.1995 C.ar    1  UNL1        0.0041
      6 C         137.8083  142.9433  162.7869 C.ar    1  UNL1        0.0002
      7 C         137.6635  144.1662  163.6434 C.ar    1  UNL1        0.0015
      8 C         138.4534  144.2909  164.9124 C.ar    1  UNL1        0.0192
      9 C         139.3881  143.1927  165.3250 C.ar    1  UNL1        0.0857
     10 N         140.1780  143.3174  166.5941 N.ar    1  UNL1       -0.2252
     11 C         139.8819  142.3685  170.0254 C.3     1  UNL1        0.1321
     12 N         141.3368  142.4126  169.6633 N.ar    1  UNL1       -0.3046
     13 C         142.4815  142.5330  170.6252 C.ar    1  UNL1        0.1787
     14 N         143.7547  142.5388  169.8322 N.ar    1  UNL1       -0.2222
     15 C         143.3970  142.4220  168.3801 C.ar    1  UNL1        0.1209
     16 C         141.9026  142.3440  168.2758 C.ar    1  UNL1        0.1168
     17 C         138.8879  140.6221  162.3431 C.ar    1  UNL1        0.0001
     18 C         138.0642  139.4023  162.6320 C.ar    1  UNL1        0.0000
     19 C         138.2090  138.1794  161.7756 C.ar    1  UNL1        0.0000
     20 C         139.1776  138.1763  160.6302 C.ar    1  UNL1        0.0000
     21 C         140.0013  139.3962  160.3413 C.ar    1  UNL1        0.0000
     22 C         139.8564  140.6191  161.1977 C.ar    1  UNL1        0.0000
     23 N         140.6124  139.6487  164.0248 N.pl3   1  UNL1       -0.3131
     24 H         139.8147  139.2238  163.6345 H       1  UNL1        0.1485
     25 C         141.9727  139.0731  163.7630 C.3     1  UNL1        0.1348
     26 C         143.1314  139.9838  163.4840 C.ar    1  UNL1        0.0788
     27 C         144.3550  139.9275  164.3498 C.ar    1  UNL1        0.0165
     28 C         145.5138  140.8383  164.0709 C.ar    1  UNL1        0.0029
     29 C         145.4490  141.8053  162.9260 C.ar    1  UNL1        0.0207
     30 C         144.2253  141.8616  162.0601 C.ar    1  UNL1        0.0985
     31 N         143.0666  140.9509  162.3391 N.ar    1  UNL1       -0.2464
@<TRIPOS>BOND
     1    11    12    1
     2    12    13   ar
     3    13    14   ar
     4    14    15   ar
     5    15    16   ar
     6    16     1    1
     7     1     2   ar
     8     2     3   ar
     9     3    23    1
    10    23    25    1
    11    25    26    1
    12    26    27   ar
    13    27    28   ar
    14    28    29   ar
    15    29    30   ar
    16    30    31   ar
    17     3     4   ar
    18     4     5   ar
    19     5    17    1
    20    17    18   ar
    21    18    19   ar
    22    19    20   ar
    23    20    21   ar
    24    21    22   ar
    25     5     6   ar
    26     6     7   ar
    27     7     8   ar
    28     8     9   ar
    29     9    10   ar
    30    16    12   ar
    31    10     1   ar
    32    31    26   ar
    33     9     4   ar
    34    22    17   ar
    35    23    24    1
@<TRIPOS>MOLECULE
*****
 31 35 0 0 0
SMALL
GASTEIGER

@<TRIPOS>ATOM
      1 C         140.2890  142.0291  167.6212 C.ar    1  UNL1        0.1811
      2 N         140.2245  140.7441  166.8500 N.ar    1  UNL1       -0.2106
      3 C         139.8297  140.7569  165.4030 C.ar    1  UNL1        0.1319
      4 C         139.4995  142.0546  164.7271 C.ar    1  UNL1        0.0491
      5 C         139.1047  142.0674  163.2800 C.ar    1  UNL1        0.0041
      6 C         138.7744  143.3651  162.6041 C.ar    1  UNL1        0.0002
      7 C         138.8389  144.6500  163.3753 C.ar    1  UNL1        0.0015
      8 C         139.2337  144.6373  164.8224 C.ar    1  UNL1        0.0192
      9 C         139.5640  143.3396  165.4982 C.ar    1  UNL1        0.0857
     10 N         139.9587  143.3268  166.9453 N.ar    1  UNL1       -0.2252
     11 C         143.3333  142.2228  168.7808 C.3     1  UNL1        0.1321
     12 N         142.0831  142.1054  169.6013 N.ar    1  UNL1       -0.3046
     13 C         142.0127  142.0564  171.0988 C.ar    1  UNL1        0.1787
     14 N         140.5699  141.9371  171.4914 N.ar    1  UNL1       -0.2222
     15 C         139.7485  141.9123  170.2365 C.ar    1  UNL1        0.1209
     16 C         140.6838  142.0164  169.0683 C.ar    1  UNL1        0.1168
     17 C         139.0402  140.7824  162.5088 C.ar    1  UNL1        0.0001
     18 C         137.7895  139.9547  162.5338 C.ar    1  UNL1        0.0000
     19 C         137.7250  138.6697  161.7626 C.ar    1  UNL1        0.0000
     20 C         138.9112  138.2124  160.9665 C.ar    1  UNL1        0.0000
     21 C         140.1620  139.0402  160.9416 C.ar    1  UNL1        0.0000
     22 C         140.2264  140.3251  161.7128 C.ar    1  UNL1        0.0000
     23 N         139.7652  139.4719  164.6318 N.pl3   1  UNL1       -0.3131
     24 H         139.0709  139.3439  163.9457 H       1  UNL1        0.1485
     25 C         140.7587  138.3820  164.9059 C.3     1  UNL1        0.1348
     26 C         142.2275  138.6546  164.7708 C.ar    1  UNL1        0.0788
     27 C         143.1323  138.4937  165.9562 C.ar    1  UNL1        0.0165
     28 C         144.6012  138.7663  165.8211 C.ar    1  UNL1        0.0029
     29 C         145.1652  139.1998  164.5005 C.ar    1  UNL1        0.0207
     30 C         144.2603  139.3608  163.3150 C.ar    1  UNL1        0.0985
     31 N         142.7915  139.0881  163.4502 N.ar    1  UNL1       -0.2464
@<TRIPOS>BOND
     1    11    12    1
     2    12    13   ar
     3    13    14   ar
     4    14    15   ar
     5    15    16   ar
     6    16     1    1
     7     1     2   ar
     8     2     3   ar
     9     3    23    1
    10    23    25    1
    11    25    26    1
    12    26    27   ar
    13    27    28   ar
    14    28    29   ar
    15    29    30   ar
    16    30    31   ar
    17     3     4   ar
    18     4     5   ar
    19     5    17    1
    20    17    18   ar
    21    18    19   ar
    22    19    20   ar
    23    20    21   ar
    24    21    22   ar
    25     5     6   ar
    26     6     7   ar
    27     7     8   ar
    28     8     9   ar
    29     9    10   ar
    30    16    12   ar
    31    10     1   ar
    32    31    26   ar
    33     9     4   ar
    34    22    17   ar
    35    23    24    1
@<TRIPOS>MOLECULE
*****
 31 35 0 0 0
SMALL
GASTEIGER

@<TRIPOS>ATOM
      1 C         141.3982  140.2633  167.8522 C.ar    1  UNL1        0.1811
      2 N         140.1478  140.2501  167.0236 N.ar    1  UNL1       -0.2106
      3 C         140.2135  139.8751  165.5727 C.ar    1  UNL1        0.1319
      4 C         141.5296  139.5133  164.9504 C.ar    1  UNL1        0.0491
      5 C         141.5953  139.1383  163.4995 C.ar    1  UNL1        0.0041
      6 C         142.9112  138.7766  162.8772 C.ar    1  UNL1        0.0002
      7 C         144.1615  138.7898  163.7058 C.ar    1  UNL1        0.0015
      8 C         144.0958  139.1648  165.1567 C.ar    1  UNL1        0.0192
      9 C         142.7799  139.5265  165.7790 C.ar    1  UNL1        0.0857
     10 N         142.7142  139.9015  167.2299 N.ar    1  UNL1       -0.2252
     11 C         143.3465  142.3945  169.3727 C.3     1  UNL1        0.1321
     12 N         142.2280  141.6179  170.0020 N.ar    1  UNL1       -0.3046
     13 C         141.8088  141.6846  171.4407 C.ar    1  UNL1        0.1787
     14 N         140.6541  140.7462  171.6309 N.ar    1  UNL1       -0.2222
     15 C         140.3597  140.0995  170.3098 C.ar    1  UNL1        0.1209
     16 C         141.3325  140.6383  169.3031 C.ar    1  UNL1        0.1168
     17 C         140.3449  139.1251  162.6710 C.ar    1  UNL1        0.0001
     18 C         139.4474  137.9234  162.6867 C.ar    1  UNL1        0.0000
     19 C         138.1970  137.9102  161.8581 C.ar    1  UNL1        0.0000
     20 C         137.8442  139.0988  161.0138 C.ar    1  UNL1        0.0000
     21 C         138.7418  140.3005  160.9981 C.ar    1  UNL1        0.0000
     22 C         139.9921  140.3137  161.8267 C.ar    1  UNL1        0.0000
     23 N         138.9633  139.8619  164.7441 N.pl3   1  UNL1       -0.3131
     24 H         138.7946  139.1200  164.1193 H       1  UNL1        0.1485
     25 C         137.9699  140.9791  164.8675 C.3     1  UNL1        0.1348
     26 C         138.3279  142.3567  164.3943 C.ar    1  UNL1        0.0788
     27 C         137.6405  142.9401  163.1955 C.ar    1  UNL1        0.0165
     28 C         137.9985  144.3178  162.7223 C.ar    1  UNL1        0.0029
     29 C         139.0439  145.1120  163.4479 C.ar    1  UNL1        0.0207
     30 C         139.7312  144.5285  164.6468 C.ar    1  UNL1        0.0985
     31 N         139.3732  143.1509  165.1199 N.ar    1  UNL1       -0.2464
@<TRIPOS>BOND
     1    11    12    1
     2    12    13   ar
     3    13    14   ar
     4    14    15   ar
     5    15    16   ar
     6    16     1    1
     7     1     2   ar
     8     2     3   ar
     9     3    23    1
    10    23    25    1
    11    25    26    1
    12    26    27   ar
    13    27    28   ar
    14    28    29   ar
    15    29    30   ar
    16    30    31   ar
    17     3     4   ar
    18     4     5   ar
    19     5    17    1
    20    17    18   ar
    21    18    19   ar
    22    19    20   ar
    23    20    21   ar
    24    21    22   ar
    25     5     6   ar
    26     6     7   ar
    27     7     8   ar
    28     8     9   ar
    29     9    10   ar
    30    16    12   ar
    31    10     1   ar
    32    31    26   ar
    33     9     4   ar
    34    22    17   ar
    35    23    24    1
@<TRIPOS>MOLECULE
*****
 31 35 0 0 0
SMALL
GASTEIGER

@<TRIPOS>ATOM
      1 C         140.9429  143.6701  162.1819 C.ar    1  UNL1        0.1811
      2 N         139.9883  143.0427  163.1541 N.ar    1  UNL1       -0.2106
      3 C         140.4583  142.6611  164.5265 C.ar    1  UNL1        0.1319
      4 C         141.8830  142.9069  164.9267 C.ar    1  UNL1        0.0491
      5 C         142.3530  142.5254  166.2991 C.ar    1  UNL1        0.0041
      6 C         143.7775  142.7712  166.6993 C.ar    1  UNL1        0.0002
      7 C         144.7320  143.3986  165.7271 C.ar    1  UNL1        0.0015
      8 C         144.2620  143.7802  164.3547 C.ar    1  UNL1        0.0192
      9 C         142.8375  143.5343  163.9545 C.ar    1  UNL1        0.0857
     10 N         142.3674  143.9159  162.5821 N.ar    1  UNL1       -0.2252
     11 C         140.0035  141.6078  159.8337 C.3     1  UNL1        0.1321
     12 N         140.0411  143.1038  159.7302 N.ar    1  UNL1       -0.3046
     13 C         139.6535  143.9144  158.5291 C.ar    1  UNL1        0.1787
     14 N         139.8457  145.3633  158.8661 N.ar    1  UNL1       -0.2222
     15 C         140.3521  145.4483  160.2755 C.ar    1  UNL1        0.1209
     16 C         140.4729  144.0517  160.8095 C.ar    1  UNL1        0.1168
     17 C         141.3984  141.8979  167.2713 C.ar    1  UNL1        0.0001
     18 C         141.1219  140.4251  167.2065 C.ar    1  UNL1        0.0000
     19 C         140.1673  139.7977  168.1787 C.ar    1  UNL1        0.0000
     20 C         139.4892  140.6431  169.2157 C.ar    1  UNL1        0.0000
     21 C         139.7658  142.1161  169.2805 C.ar    1  UNL1        0.0000
     22 C         140.7203  142.7434  168.3083 C.ar    1  UNL1        0.0000
     23 N         139.5038  142.0337  165.4987 N.pl3   1  UNL1       -0.3131
     24 H         139.7064  142.0415  166.4621 H       1  UNL1        0.1485
     25 C         138.2406  141.3944  165.0031 C.3     1  UNL1        0.1348
     26 C         138.3094  140.1988  164.0998 C.ar    1  UNL1        0.0788
     27 C         138.9183  138.9200  164.5935 C.ar    1  UNL1        0.0165
     28 C         138.9872  137.7244  163.6902 C.ar    1  UNL1        0.0029
     29 C         138.4472  137.8077  162.2933 C.ar    1  UNL1        0.0207
     30 C         137.8383  139.0867  161.7996 C.ar    1  UNL1        0.0985
     31 N         137.7695  140.2822  162.7029 N.ar    1  UNL1       -0.2464
@<TRIPOS>BOND
     1    11    12    1
     2    12    13   ar
     3    13    14   ar
     4    14    15   ar
     5    15    16   ar
     6    16     1    1
     7     1     2   ar
     8     2     3   ar
     9     3    23    1
    10    23    25    1
    11    25    26    1
    12    26    27   ar
    13    27    28   ar
    14    28    29   ar
    15    29    30   ar
    16    30    31   ar
    17     3     4   ar
    18     4     5   ar
    19     5    17    1
    20    17    18   ar
    21    18    19   ar
    22    19    20   ar
    23    20    21   ar
    24    21    22   ar
    25     5     6   ar
    26     6     7   ar
    27     7     8   ar
    28     8     9   ar
    29     9    10   ar
    30    16    12   ar
    31    10     1   ar
    32    31    26   ar
    33     9     4   ar
    34    22    17   ar
    35    23    24    1
@<TRIPOS>MOLECULE
*****
 31 35 0 0 0
SMALL
GASTEIGER

@<TRIPOS>ATOM
      1 C         141.4237  142.2363  167.6389 C.ar    1  UNL1        0.1811
      2 N         140.3144  142.2547  166.6293 N.ar    1  UNL1       -0.2106
      3 C         140.6285  142.4286  165.1729 C.ar    1  UNL1        0.1319
      4 C         142.0520  142.5841  164.7261 C.ar    1  UNL1        0.0491
      5 C         142.3661  142.7580  163.2697 C.ar    1  UNL1        0.0041
      6 C         143.7895  142.9135  162.8228 C.ar    1  UNL1        0.0002
      7 C         144.8987  142.8951  163.8323 C.ar    1  UNL1        0.0015
      8 C         144.5846  142.7212  165.2887 C.ar    1  UNL1        0.0192
      9 C         143.1612  142.5657  165.7356 C.ar    1  UNL1        0.0857
     10 N         142.8471  142.3918  167.1920 N.ar    1  UNL1       -0.2252
     11 C         142.1581  139.6311  169.4619 C.3     1  UNL1        0.1321
     12 N         141.4472  140.8650  169.9332 N.ar    1  UNL1       -0.3046
     13 C         140.9489  141.1179  171.3253 C.ar    1  UNL1        0.1787
     14 N         140.3034  142.4718  171.3477 N.ar    1  UNL1       -0.2222
     15 C         140.4027  143.0556  169.9695 C.ar    1  UNL1        0.1209
     16 C         141.1096  142.0624  169.0953 C.ar    1  UNL1        0.1168
     17 C         141.2567  142.7764  162.2601 C.ar    1  UNL1        0.0001
     18 C         140.8141  141.4997  161.6089 C.ar    1  UNL1        0.0000
     19 C         139.7048  141.5181  160.5994 C.ar    1  UNL1        0.0000
     20 C         139.0381  142.8131  160.2411 C.ar    1  UNL1        0.0000
     21 C         139.4808  144.0898  160.8925 C.ar    1  UNL1        0.0000
     22 C         140.5901  144.0714  161.9019 C.ar    1  UNL1        0.0000
     23 N         139.5192  142.4470  164.1634 N.pl3   1  UNL1       -0.3131
     24 H         139.5993  143.0018  163.3541 H       1  UNL1        0.1485
     25 C         138.2879  141.6199  164.3869 C.3     1  UNL1        0.1348
     26 C         138.4105  140.1484  164.6510 C.ar    1  UNL1        0.0788
     27 C         138.0589  139.5969  166.0008 C.ar    1  UNL1        0.0165
     28 C         138.1815  138.1253  166.2649 C.ar    1  UNL1        0.0029
     29 C         138.6558  137.2055  165.1791 C.ar    1  UNL1        0.0207
     30 C         139.0075  137.7571  163.8293 C.ar    1  UNL1        0.0985
     31 N         138.8848  139.2286  163.5652 N.ar    1  UNL1       -0.2464
@<TRIPOS>BOND
     1    11    12    1
     2    12    13   ar
     3    13    14   ar
     4    14    15   ar
     5    15    16   ar
     6    16     1    1
     7     1     2   ar
     8     2     3   ar
     9     3    23    1
    10    23    25    1
    11    25    26    1
    12    26    27   ar
    13    27    28   ar
    14    28    29   ar
    15    29    30   ar
    16    30    31   ar
    17     3     4   ar
    18     4     5   ar
    19     5    17    1
    20    17    18   ar
    21    18    19   ar
    22    19    20   ar
    23    20    21   ar
    24    21    22   ar
    25     5     6   ar
    26     6     7   ar
    27     7     8   ar
    28     8     9   ar
    29     9    10   ar
    30    16    12   ar
    31    10     1   ar
    32    31    26   ar
    33     9     4   ar
    34    22    17   ar
    35    23    24    1
@<TRIPOS>MOLECULE
*****
 31 35 0 0 0
SMALL
GASTEIGER

@<TRIPOS>ATOM
      1 C         140.1551  141.1620  167.9762 C.ar    1  UNL1        0.1811
      2 N         140.2640  142.1918  166.8910 N.ar    1  UNL1       -0.2106
      3 C         139.9260  141.8284  165.4755 C.ar    1  UNL1        0.1319
      4 C         139.4790  140.4351  165.1452 C.ar    1  UNL1        0.0491
      5 C         139.1409  140.0717  163.7297 C.ar    1  UNL1        0.0041
      6 C         138.6939  138.6785  163.3994 C.ar    1  UNL1        0.0002
      7 C         138.5850  137.6487  164.4846 C.ar    1  UNL1        0.0015
      8 C         138.9231  138.0121  165.9001 C.ar    1  UNL1        0.0192
      9 C         139.3700  139.4053  166.2304 C.ar    1  UNL1        0.0857
     10 N         139.7081  139.7688  167.6459 N.ar    1  UNL1       -0.2252
     11 C         143.0590  140.7765  169.4143 C.3     1  UNL1        0.1321
     12 N         141.8279  141.3482  170.0527 N.ar    1  UNL1       -0.3046
     13 C         141.7155  141.8432  171.4642 C.ar    1  UNL1        0.1787
     14 N         140.3112  142.3262  171.6756 N.ar    1  UNL1       -0.2222
     15 C         139.5557  142.1299  170.3947 C.ar    1  UNL1        0.1209
     16 C         140.4932  141.5254  169.3917 C.ar    1  UNL1        0.1168
     17 C         139.2498  141.1015  162.6445 C.ar    1  UNL1        0.0001
     18 C         138.0984  142.0212  162.3650 C.ar    1  UNL1        0.0000
     19 C         138.2073  143.0511  161.2798 C.ar    1  UNL1        0.0000
     20 C         139.4678  143.1611  160.4741 C.ar    1  UNL1        0.0000
     21 C         140.6193  142.2413  160.7536 C.ar    1  UNL1        0.0000
     22 C         140.5103  141.2116  161.8388 C.ar    1  UNL1        0.0000
     23 N         140.0349  142.8581  164.3903 N.pl3   1  UNL1       -0.3131
     24 H         139.3403  142.9158  163.6949 H       1  UNL1        0.1485
     25 C         141.2020  143.8001  164.3645 C.3     1  UNL1        0.1348
     26 C         142.5570  143.3043  163.9544 C.ar    1  UNL1        0.0788
     27 C         143.2951  142.3318  164.8257 C.ar    1  UNL1        0.0165
     28 C         144.6501  141.8360  164.4155 C.ar    1  UNL1        0.0029
     29 C         145.2670  142.3128  163.1340 C.ar    1  UNL1        0.0207
     30 C         144.5288  143.2854  162.2627 C.ar    1  UNL1        0.0985
     31 N         143.1738  143.7812  162.6729 N.ar    1  UNL1       -0.2464
@<TRIPOS>BOND
     1    11    12    1
     2    12    13   ar
     3    13    14   ar
     4    14    15   ar
     5    15    16   ar
     6    16     1    1
     7     1     2   ar
     8     2     3   ar
     9     3    23    1
    10    23    25    1
    11    25    26    1
    12    26    27   ar
    13    27    28   ar
    14    28    29   ar
    15    29    30   ar
    16    30    31   ar
    17     3     4   ar
    18     4     5   ar
    19     5    17    1
    20    17    18   ar
    21    18    19   ar
    22    19    20   ar
    23    20    21   ar
    24    21    22   ar
    25     5     6   ar
    26     6     7   ar
    27     7     8   ar
    28     8     9   ar
    29     9    10   ar
    30    16    12   ar
    31    10     1   ar
    32    31    26   ar
    33     9     4   ar
    34    22    17   ar
    35    23    24    1
