@<TRIPOS>MOLECULE
*****
 30 34 0 0 0
SMALL
GASTEIGER

@<TRIPOS>ATOM
      1 C         138.5393  141.6314  163.1980 C.ar    1  UNL1        0.1856
      2 N         137.8483  142.9380  162.9423 N.ar    1  UNL1       -0.1274
      3 N         137.8041  143.1565  161.4590 N.ar    1  UNL1       -0.1316
      4 C         138.4678  141.9850  160.7979 C.ar    1  UNL1        0.1615
      5 N         138.9221  141.0424  161.8727 N.ar    1  UNL1       -0.2944
      6 C         139.6258  139.7696  161.5057 C.3     1  UNL1        0.1302
      7 C         139.8751  139.4392  160.0638 C.3     1  UNL1        0.1186
      8 N         139.4208  140.3818  158.9891 N.am    1  UNL1       -0.2688
      9 C         139.6701  140.0515  157.5473 C.2     1  UNL1        0.2493
     10 O         139.2157  140.9941  156.4725 O.2     1  UNL1       -0.2699
     11 C         138.7171  141.6547  159.3561 C.3     1  UNL1        0.1343
     12 C         138.2628  142.5973  158.2814 C.3     1  UNL1        0.0298
     13 C         137.7418  137.8262  166.6453 C.3     1  UNL1        0.0538
     14 C         138.4027  139.1184  166.2665 C.ar    1  UNL1        0.0786
     15 C         139.3256  139.8001  167.2327 C.ar    1  UNL1        0.1136
     16 N         139.9864  141.0923  166.8539 N.ar    1  UNL1       -0.2394
     17 C         139.7243  141.7027  165.5090 C.ar    1  UNL1        0.1210
     18 C         138.8014  141.0210  164.5429 C.ar    1  UNL1        0.1358
     19 N         138.1405  139.7288  164.9216 N.ar    1  UNL1       -0.2434
     20 C         140.3737  138.7787  157.1803 C.ar    1  UNL1        0.0536
     21 C         139.6673  137.7411  156.3592 C.ar    1  UNL1        0.0045
     22 C         140.3710  136.4682  155.9922 C.ar    1  UNL1        0.0006
     23 C         141.7811  136.2330  156.4463 C.ar    1  UNL1        0.0060
     24 C         142.4875  137.2706  157.2675 C.ar    1  UNL1        0.0006
     25 C         141.7839  138.5434  157.6345 C.ar    1  UNL1        0.0045
     26 C         142.4848  134.9601  156.0794 C.ar    1  UNL1        0.0295
     27 C         142.2011  134.1113  154.8756 C.ar    1  UNL1        0.0070
     28 C         143.1367  132.9392  154.9040 C.ar    1  UNL1        0.0075
     29 C         143.9986  133.0636  156.1254 C.ar    1  UNL1        0.0354
     30 S         143.5957  134.3126  156.8518 S.2     1  UNL1       -0.0864
@<TRIPOS>BOND
     1    13    14    1
     2    14    15   ar
     3    15    16   ar
     4    16    17   ar
     5    17    18   ar
     6    18     1    1
     7     1     2   ar
     8     2     3   ar
     9     3     4   ar
    10     4     5   ar
    11     5     6    1
    12     6     7    1
    13     7     8    1
    14     8     9   am
    15     9    10    2
    16     9    20    1
    17    20    21   ar
    18    21    22   ar
    19    22    23   ar
    20    23    26    1
    21    26    27   ar
    22    27    28   ar
    23    28    29   ar
    24    29    30   ar
    25    23    24   ar
    26    24    25   ar
    27     8    11    1
    28    11    12    1
    29    18    19   ar
    30    19    14   ar
    31     5     1   ar
    32    25    20   ar
    33    11     4    1
    34    30    26   ar
@<TRIPOS>MOLECULE
*****
 30 34 0 0 0
SMALL
GASTEIGER

@<TRIPOS>ATOM
      1 C         140.1268  141.6419  158.1858 C.ar    1  UNL1        0.1856
      2 N         139.8439  142.8911  157.4052 N.ar    1  UNL1       -0.1274
      3 N         139.9234  144.0549  158.3482 N.ar    1  UNL1       -0.1316
      4 C         140.2553  143.5248  159.7117 C.ar    1  UNL1        0.1615
      5 N         140.3810  142.0335  159.6113 N.ar    1  UNL1       -0.2944
      6 C         140.7107  141.2248  160.8308 C.3     1  UNL1        0.1302
      7 C         140.9148  141.9075  162.1508 C.3     1  UNL1        0.1186
      8 N         140.7890  143.3988  162.2512 N.am    1  UNL1       -0.2688
      9 C         140.9931  144.0815  163.5712 C.2     1  UNL1        0.2493
     10 O         140.8673  145.5729  163.6716 O.2     1  UNL1       -0.2699
     11 C         140.4593  144.2075  161.0316 C.3     1  UNL1        0.1343
     12 C         140.3336  145.6989  161.1320 C.3     1  UNL1        0.0298
     13 C         142.6113  137.1374  157.4531 C.3     1  UNL1        0.0538
     14 C         141.3933  137.9937  157.2708 C.ar    1  UNL1        0.0786
     15 C         140.1997  137.4542  156.5400 C.ar    1  UNL1        0.1136
     16 N         138.9817  138.3105  156.3578 N.ar    1  UNL1       -0.2394
     17 C         138.9575  139.7064  156.9064 C.ar    1  UNL1        0.1210
     18 C         140.1511  140.2460  157.6372 C.ar    1  UNL1        0.1358
     19 N         141.3691  139.3897  157.8194 N.ar    1  UNL1       -0.2434
     20 C         141.3228  143.2728  164.7907 C.ar    1  UNL1        0.0536
     21 C         140.2257  142.8102  165.7030 C.ar    1  UNL1        0.0045
     22 C         140.5555  142.0014  166.9226 C.ar    1  UNL1        0.0006
     23 C         141.9823  141.6554  167.2298 C.ar    1  UNL1        0.0060
     24 C         143.0794  142.1181  166.3175 C.ar    1  UNL1        0.0006
     25 C         142.7497  142.9268  165.0980 C.ar    1  UNL1        0.0045
     26 C         142.3121  140.8467  168.4494 C.ar    1  UNL1        0.0295
     27 C         142.2416  139.3527  168.5622 C.ar    1  UNL1        0.0070
     28 C         142.6562  138.9727  169.9527 C.ar    1  UNL1        0.0075
     29 C         142.9830  140.2320  170.6994 C.ar    1  UNL1        0.0354
     30 S         142.7703  141.3903  169.7702 S.2     1  UNL1       -0.0864
@<TRIPOS>BOND
     1    13    14    1
     2    14    15   ar
     3    15    16   ar
     4    16    17   ar
     5    17    18   ar
     6    18     1    1
     7     1     2   ar
     8     2     3   ar
     9     3     4   ar
    10     4     5   ar
    11     5     6    1
    12     6     7    1
    13     7     8    1
    14     8     9   am
    15     9    10    2
    16     9    20    1
    17    20    21   ar
    18    21    22   ar
    19    22    23   ar
    20    23    26    1
    21    26    27   ar
    22    27    28   ar
    23    28    29   ar
    24    29    30   ar
    25    23    24   ar
    26    24    25   ar
    27     8    11    1
    28    11    12    1
    29    18    19   ar
    30    19    14   ar
    31     5     1   ar
    32    25    20   ar
    33    11     4    1
    34    30    26   ar
@<TRIPOS>MOLECULE
*****
 30 34 0 0 0
SMALL
GASTEIGER

@<TRIPOS>ATOM
      1 C         140.1172  140.5731  167.9623 C.ar    1  UNL1        0.1856
      2 N         139.0340  139.6459  168.4281 N.ar    1  UNL1       -0.1274
      3 N         138.6348  138.7805  167.2697 N.ar    1  UNL1       -0.1316
      4 C         139.4713  139.1729  166.0881 C.ar    1  UNL1        0.1615
      5 N         140.3875  140.2808  166.5161 N.ar    1  UNL1       -0.2944
      6 C         141.3495  140.8802  165.5337 C.3     1  UNL1        0.1302
      7 C         141.3953  140.3718  164.1232 C.3     1  UNL1        0.1186
      8 N         140.4792  139.2639  163.6951 N.am    1  UNL1       -0.2688
      9 C         140.5250  138.7555  162.2847 C.2     1  UNL1        0.2493
     10 O         139.6088  137.6476  161.8567 O.2     1  UNL1       -0.2699
     11 C         139.5172  138.6644  164.6776 C.3     1  UNL1        0.1343
     12 C         138.6010  137.5565  164.2496 C.3     1  UNL1        0.0298
     13 C         144.4786  142.5534  169.9762 C.3     1  UNL1        0.0538
     14 C         142.9894  142.6008  169.8032 C.ar    1  UNL1        0.0786
     15 C         142.1917  143.6855  170.4642 C.ar    1  UNL1        0.1136
     16 N         140.7025  143.7329  170.2912 N.ar    1  UNL1       -0.2394
     17 C         140.0110  142.6954  169.4572 C.ar    1  UNL1        0.1210
     18 C         140.8087  141.6106  168.7962 C.ar    1  UNL1        0.1358
     19 N         142.2979  141.5633  168.9692 N.ar    1  UNL1       -0.2434
     20 C         141.4870  139.3549  161.3023 C.ar    1  UNL1        0.0536
     21 C         142.8660  138.7826  161.1582 C.ar    1  UNL1        0.0045
     22 C         143.8280  139.3821  160.1758 C.ar    1  UNL1        0.0006
     23 C         143.4110  140.5539  159.3374 C.ar    1  UNL1        0.0060
     24 C         142.0320  141.1263  159.4815 C.ar    1  UNL1        0.0006
     25 C         141.0700  140.5269  160.4639 C.ar    1  UNL1        0.0045
     26 C         144.3730  141.1535  158.3550 C.ar    1  UNL1        0.0295
     27 C         145.1498  142.4227  158.5439 C.ar    1  UNL1        0.0070
     28 C         145.9839  142.6427  157.3168 C.ar    1  UNL1        0.0075
     29 C         145.7227  141.5093  156.3694 C.ar    1  UNL1        0.0354
     30 S         144.7270  140.5889  157.0111 S.2     1  UNL1       -0.0864
@<TRIPOS>BOND
     1    13    14    1
     2    14    15   ar
     3    15    16   ar
     4    16    17   ar
     5    17    18   ar
     6    18     1    1
     7     1     2   ar
     8     2     3   ar
     9     3     4   ar
    10     4     5   ar
    11     5     6    1
    12     6     7    1
    13     7     8    1
    14     8     9   am
    15     9    10    2
    16     9    20    1
    17    20    21   ar
    18    21    22   ar
    19    22    23   ar
    20    23    26    1
    21    26    27   ar
    22    27    28   ar
    23    28    29   ar
    24    29    30   ar
    25    23    24   ar
    26    24    25   ar
    27     8    11    1
    28    11    12    1
    29    18    19   ar
    30    19    14   ar
    31     5     1   ar
    32    25    20   ar
    33    11     4    1
    34    30    26   ar
@<TRIPOS>MOLECULE
*****
 30 34 0 0 0
SMALL
GASTEIGER

@<TRIPOS>ATOM
      1 C         142.9620  136.5901  156.2152 C.ar    1  UNL1        0.1856
      2 N         143.0417  137.3717  154.9374 N.ar    1  UNL1       -0.1274
      3 N         143.0910  138.8293  155.2881 N.ar    1  UNL1       -0.1316
      4 C         143.0418  138.9485  156.7826 C.ar    1  UNL1        0.1615
      5 N         142.9621  137.5646  157.3555 N.ar    1  UNL1       -0.2944
      6 C         142.8999  137.3705  158.8416 C.3     1  UNL1        0.1302
      7 C         142.9174  138.5605  159.7548 C.3     1  UNL1        0.1186
      8 N         142.9971  139.9444  159.1818 N.am    1  UNL1       -0.2688
      9 C         143.0147  141.1343  160.0949 C.2     1  UNL1        0.2493
     10 O         143.0944  142.5183  159.5219 O.2     1  UNL1       -0.2699
     11 C         143.0594  140.1384  157.6956 C.3     1  UNL1        0.1343
     12 C         143.1391  141.5224  157.1227 C.3     1  UNL1        0.0298
     13 C         144.9923  132.1106  157.8922 C.3     1  UNL1        0.0538
     14 C         143.9092  132.8564  157.1706 C.ar    1  UNL1        0.0786
     15 C         142.7583  132.1083  156.5659 C.ar    1  UNL1        0.1136
     16 N         141.6752  132.8541  155.8443 N.ar    1  UNL1       -0.2394
     17 C         141.7432  134.3481  155.7274 C.ar    1  UNL1        0.1210
     18 C         142.8941  135.0962  156.3321 C.ar    1  UNL1        0.1358
     19 N         143.9772  134.3504  157.0537 N.ar    1  UNL1       -0.2434
     20 C         142.9524  140.9403  161.5809 C.ar    1  UNL1        0.0536
     21 C         144.2179  140.7774  162.3697 C.ar    1  UNL1        0.0045
     22 C         144.1556  140.5834  163.8558 C.ar    1  UNL1        0.0006
     23 C         142.8279  140.5522  164.5531 C.ar    1  UNL1        0.0060
     24 C         141.5625  140.7150  163.7644 C.ar    1  UNL1        0.0006
     25 C         141.6247  140.9091  162.2783 C.ar    1  UNL1        0.0045
     26 C         142.7657  140.3581  166.0393 C.ar    1  UNL1        0.0295
     27 C         142.8060  139.0428  166.7592 C.ar    1  UNL1        0.0070
     28 C         142.7174  139.3171  168.2312 C.ar    1  UNL1        0.0075
     29 C         142.6222  140.8020  168.4211 C.ar    1  UNL1        0.0354
     30 S         142.6521  141.4454  167.0663 S.2     1  UNL1       -0.0864
@<TRIPOS>BOND
     1    13    14    1
     2    14    15   ar
     3    15    16   ar
     4    16    17   ar
     5    17    18   ar
     6    18     1    1
     7     1     2   ar
     8     2     3   ar
     9     3     4   ar
    10     4     5   ar
    11     5     6    1
    12     6     7    1
    13     7     8    1
    14     8     9   am
    15     9    10    2
    16     9    20    1
    17    20    21   ar
    18    21    22   ar
    19    22    23   ar
    20    23    26    1
    21    26    27   ar
    22    27    28   ar
    23    28    29   ar
    24    29    30   ar
    25    23    24   ar
    26    24    25   ar
    27     8    11    1
    28    11    12    1
    29    18    19   ar
    30    19    14   ar
    31     5     1   ar
    32    25    20   ar
    33    11     4    1
    34    30    26   ar
@<TRIPOS>MOLECULE
*****
 30 34 0 0 0
SMALL
GASTEIGER

@<TRIPOS>ATOM
      1 C         139.9884  139.8743  166.5172 C.ar    1  UNL1        0.1856
      2 N         138.6545  139.2250  166.7390 N.ar    1  UNL1       -0.1274
      3 N         138.1185  138.7996  165.4042 N.ar    1  UNL1       -0.1316
      4 C         139.1210  139.1860  164.3575 C.ar    1  UNL1        0.1615
      5 N         140.2767  139.8502  165.0454 N.ar    1  UNL1       -0.2944
      6 C         141.4423  140.3472  164.2427 C.3     1  UNL1        0.1302
      7 C         141.4522  140.1800  162.7520 C.3     1  UNL1        0.1186
      8 N         140.2964  139.5159  162.0641 N.am    1  UNL1       -0.2688
      9 C         140.3063  139.3487  160.5735 C.2     1  UNL1        0.2493
     10 O         139.1506  138.6845  159.8856 O.2     1  UNL1       -0.2699
     11 C         139.1308  139.0188  162.8669 C.3     1  UNL1        0.1343
     12 C         137.9751  138.3546  162.1790 C.3     1  UNL1        0.0298
     13 C         141.0799  143.6464  169.9201 C.3     1  UNL1        0.0538
     14 C         141.4236  142.3331  169.2820 C.ar    1  UNL1        0.0786
     15 C         142.6569  141.5927  169.7073 C.ar    1  UNL1        0.1136
     16 N         143.0006  140.2794  169.0692 N.ar    1  UNL1       -0.2394
     17 C         142.1111  139.7067  168.0059 C.ar    1  UNL1        0.1210
     18 C         140.8779  140.4471  167.5806 C.ar    1  UNL1        0.1358
     19 N         140.5341  141.7603  168.2186 N.ar    1  UNL1       -0.2434
     20 C         141.4718  139.8457  159.7708 C.ar    1  UNL1        0.0536
     21 C         141.4630  141.2411  159.2204 C.ar    1  UNL1        0.0045
     22 C         142.6286  141.7381  158.4176 C.ar    1  UNL1        0.0006
     23 C         143.8030  140.8398  158.1653 C.ar    1  UNL1        0.0060
     24 C         143.8119  139.4444  158.7157 C.ar    1  UNL1        0.0006
     25 C         142.6464  138.9474  159.5184 C.ar    1  UNL1        0.0045
     26 C         144.9687  141.3368  157.3626 C.ar    1  UNL1        0.0295
     27 C         145.8666  142.4816  157.7276 C.ar    1  UNL1        0.0070
     28 C         146.8938  142.6286  156.6445 C.ar    1  UNL1        0.0075
     29 C         146.6309  141.5746  155.6101 C.ar    1  UNL1        0.0354
     30 S         145.4410  140.7762  156.0539 S.2     1  UNL1       -0.0864
@<TRIPOS>BOND
     1    13    14    1
     2    14    15   ar
     3    15    16   ar
     4    16    17   ar
     5    17    18   ar
     6    18     1    1
     7     1     2   ar
     8     2     3   ar
     9     3     4   ar
    10     4     5   ar
    11     5     6    1
    12     6     7    1
    13     7     8    1
    14     8     9   am
    15     9    10    2
    16     9    20    1
    17    20    21   ar
    18    21    22   ar
    19    22    23   ar
    20    23    26    1
    21    26    27   ar
    22    27    28   ar
    23    28    29   ar
    24    29    30   ar
    25    23    24   ar
    26    24    25   ar
    27     8    11    1
    28    11    12    1
    29    18    19   ar
    30    19    14   ar
    31     5     1   ar
    32    25    20   ar
    33    11     4    1
    34    30    26   ar
@<TRIPOS>MOLECULE
*****
 30 34 0 0 0
SMALL
GASTEIGER

@<TRIPOS>ATOM
      1 C         138.2691  141.5740  158.6741 C.ar    1  UNL1        0.1856
      2 N         137.7532  142.6196  157.7304 N.ar    1  UNL1       -0.1274
      3 N         138.1768  142.2407  156.3423 N.ar    1  UNL1       -0.1316
      4 C         138.9545  140.9610  156.4280 C.ar    1  UNL1        0.1615
      5 N         139.0115  140.5489  157.8691 N.ar    1  UNL1       -0.2944
      6 C         139.7322  139.2935  158.2622 C.3     1  UNL1        0.1302
      7 C         140.3958  138.4501  157.2142 C.3     1  UNL1        0.1186
      8 N         140.3388  138.8621  155.7730 N.am    1  UNL1       -0.2688
      9 C         141.0023  138.0188  154.7250 C.2     1  UNL1        0.2493
     10 O         140.9453  138.4309  153.2838 O.2     1  UNL1       -0.2699
     11 C         139.6181  140.1176  155.3799 C.3     1  UNL1        0.1343
     12 C         139.5610  140.5297  153.9388 C.3     1  UNL1        0.0298
     13 C         137.8971  144.1106  163.1937 C.3     1  UNL1        0.0538
     14 C         137.8904  142.8248  162.4214 C.ar    1  UNL1        0.0786
     15 C         137.6910  141.5214  163.1365 C.ar    1  UNL1        0.1136
     16 N         137.6843  140.2355  162.3642 N.ar    1  UNL1       -0.2394
     17 C         137.8770  140.2531  160.8767 C.ar    1  UNL1        0.1210
     18 C         138.0764  141.5565  160.1615 C.ar    1  UNL1        0.1358
     19 N         138.0831  142.8424  160.9338 N.ar    1  UNL1       -0.2434
     20 C         141.7230  136.7634  155.1181 C.ar    1  UNL1        0.0536
     21 C         143.1628  136.8241  155.5343 C.ar    1  UNL1        0.0045
     22 C         143.8834  135.5686  155.9274 C.ar    1  UNL1        0.0006
     23 C         143.1642  134.2525  155.9044 C.ar    1  UNL1        0.0060
     24 C         141.7244  134.1918  155.4882 C.ar    1  UNL1        0.0006
     25 C         141.0037  135.4472  155.0951 C.ar    1  UNL1        0.0045
     26 C         143.8848  132.9970  156.2975 C.ar    1  UNL1        0.0295
     27 C         144.0349  131.7656  155.4542 C.ar    1  UNL1        0.0070
     28 C         144.8247  130.7601  156.2385 C.ar    1  UNL1        0.0075
     29 C         145.1627  131.3700  157.5666 C.ar    1  UNL1        0.0354
     30 S         144.5818  132.7525  157.6031 S.2     1  UNL1       -0.0864
@<TRIPOS>BOND
     1    13    14    1
     2    14    15   ar
     3    15    16   ar
     4    16    17   ar
     5    17    18   ar
     6    18     1    1
     7     1     2   ar
     8     2     3   ar
     9     3     4   ar
    10     4     5   ar
    11     5     6    1
    12     6     7    1
    13     7     8    1
    14     8     9   am
    15     9    10    2
    16     9    20    1
    17    20    21   ar
    18    21    22   ar
    19    22    23   ar
    20    23    26    1
    21    26    27   ar
    22    27    28   ar
    23    28    29   ar
    24    29    30   ar
    25    23    24   ar
    26    24    25   ar
    27     8    11    1
    28    11    12    1
    29    18    19   ar
    30    19    14   ar
    31     5     1   ar
    32    25    20   ar
    33    11     4    1
    34    30    26   ar
@<TRIPOS>MOLECULE
*****
 30 34 0 0 0
SMALL
GASTEIGER

@<TRIPOS>ATOM
      1 C         141.1152  141.2056  159.8013 C.ar    1  UNL1        0.1856
      2 N         142.0023  142.3931  159.5714 N.ar    1  UNL1       -0.1274
      3 N         143.0461  142.0042  158.5668 N.ar    1  UNL1       -0.1316
      4 C         142.8041  140.5764  158.1758 C.ar    1  UNL1        0.1615
      5 N         141.6107  140.0828  158.9389 N.ar    1  UNL1       -0.2944
      6 C         141.1295  138.6748  158.7497 C.3     1  UNL1        0.1302
      7 C         141.8416  137.7602  157.7975 C.3     1  UNL1        0.1186
      8 N         143.0350  138.2538  157.0345 N.am    1  UNL1       -0.2688
      9 C         143.7471  137.3394  156.0823 C.2     1  UNL1        0.2493
     10 O         144.9405  137.8330  155.3193 O.2     1  UNL1       -0.2699
     11 C         143.5162  139.6620  157.2237 C.3     1  UNL1        0.1343
     12 C         144.7096  140.1556  156.4606 C.3     1  UNL1        0.0298
     13 C         138.5879  138.9327  163.7316 C.3     1  UNL1        0.0538
     14 C         138.6754  140.0140  162.6958 C.ar    1  UNL1        0.0786
     15 C         137.5866  141.0403  162.5892 C.ar    1  UNL1        0.1136
     16 N         137.6740  142.1217  161.5534 N.ar    1  UNL1       -0.2394
     17 C         138.8502  142.1767  160.6241 C.ar    1  UNL1        0.1210
     18 C         139.9390  141.1504  160.7306 C.ar    1  UNL1        0.1358
     19 N         139.8516  140.0691  161.7665 N.ar    1  UNL1       -0.2434
     20 C         143.2659  135.9314  155.8932 C.ar    1  UNL1        0.0536
     21 C         142.4093  135.5838  154.7119 C.ar    1  UNL1        0.0045
     22 C         141.9281  134.1757  154.5228 C.ar    1  UNL1        0.0006
     23 C         142.3034  133.1153  155.5150 C.ar    1  UNL1        0.0060
     24 C         143.1599  133.4628  156.6963 C.ar    1  UNL1        0.0006
     25 C         143.6411  134.8708  156.8855 C.ar    1  UNL1        0.0045
     26 C         141.8221  131.7071  155.3259 C.ar    1  UNL1        0.0295
     27 C         142.4563  130.4743  155.8983 C.ar    1  UNL1        0.0070
     28 C         141.6483  129.2899  155.4574 C.ar    1  UNL1        0.0075
     29 C         140.5147  129.7908  154.6124 C.ar    1  UNL1        0.0354
     30 S         140.6221  131.2849  154.5311 S.2     1  UNL1       -0.0864
@<TRIPOS>BOND
     1    13    14    1
     2    14    15   ar
     3    15    16   ar
     4    16    17   ar
     5    17    18   ar
     6    18     1    1
     7     1     2   ar
     8     2     3   ar
     9     3     4   ar
    10     4     5   ar
    11     5     6    1
    12     6     7    1
    13     7     8    1
    14     8     9   am
    15     9    10    2
    16     9    20    1
    17    20    21   ar
    18    21    22   ar
    19    22    23   ar
    20    23    26    1
    21    26    27   ar
    22    27    28   ar
    23    28    29   ar
    24    29    30   ar
    25    23    24   ar
    26    24    25   ar
    27     8    11    1
    28    11    12    1
    29    18    19   ar
    30    19    14   ar
    31     5     1   ar
    32    25    20   ar
    33    11     4    1
    34    30    26   ar
@<TRIPOS>MOLECULE
*****
 30 34 0 0 0
SMALL
GASTEIGER

@<TRIPOS>ATOM
      1 C         139.9572  141.9808  158.5106 C.ar    1  UNL1        0.1856
      2 N         139.2719  140.9666  157.6435 N.ar    1  UNL1       -0.1274
      3 N         138.8622  139.8148  158.5127 N.ar    1  UNL1       -0.1316
      4 C         139.2943  140.1171  159.9169 C.ar    1  UNL1        0.1615
      5 N         139.9710  141.4558  159.9156 N.ar    1  UNL1       -0.2944
      6 C         140.5124  142.0237  161.1940 C.3     1  UNL1        0.1302
      7 C         140.3770  141.2530  162.4738 C.3     1  UNL1        0.1186
      8 N         139.7003  139.9143  162.4751 N.am    1  UNL1       -0.2688
      9 C         139.5649  139.1436  163.7547 C.2     1  UNL1        0.2493
     10 O         138.8882  137.8050  163.7560 O.2     1  UNL1       -0.2699
     11 C         139.1589  139.3464  161.1966 C.3     1  UNL1        0.1343
     12 C         138.4822  138.0077  161.1979 C.3     1  UNL1        0.0298
     13 C         139.3877  146.5298  156.0647 C.3     1  UNL1        0.0538
     14 C         140.2437  145.5646  156.8300 C.ar    1  UNL1        0.0786
     15 C         141.6708  145.9088  157.1378 C.ar    1  UNL1        0.1136
     16 N         142.5268  144.9436  157.9031 N.ar    1  UNL1       -0.2394
     17 C         141.9555  143.6343  158.3607 C.ar    1  UNL1        0.1210
     18 C         140.5284  143.2901  158.0529 C.ar    1  UNL1        0.1358
     19 N         139.6724  144.2553  157.2876 N.ar    1  UNL1       -0.2434
     20 C         140.1063  139.7116  165.0331 C.ar    1  UNL1        0.0536
     21 C         141.4684  139.3087  165.5153 C.ar    1  UNL1        0.0045
     22 C         142.0098  139.8767  166.7937 C.ar    1  UNL1        0.0006
     23 C         141.1891  140.8475  167.5900 C.ar    1  UNL1        0.0060
     24 C         139.8270  141.2503  167.1078 C.ar    1  UNL1        0.0006
     25 C         139.2856  140.6824  165.8294 C.ar    1  UNL1        0.0045
     26 C         141.7304  141.4155  168.8684 C.ar    1  UNL1        0.0295
     27 C         142.8436  142.4138  168.9880 C.ar    1  UNL1        0.0070
     28 C         143.0548  142.7001  170.4452 C.ar    1  UNL1        0.0075
     29 C         142.0721  141.8789  171.2262 C.ar    1  UNL1        0.0354
     30 S         141.2536  141.0849  170.2516 S.2     1  UNL1       -0.0864
@<TRIPOS>BOND
     1    13    14    1
     2    14    15   ar
     3    15    16   ar
     4    16    17   ar
     5    17    18   ar
     6    18     1    1
     7     1     2   ar
     8     2     3   ar
     9     3     4   ar
    10     4     5   ar
    11     5     6    1
    12     6     7    1
    13     7     8    1
    14     8     9   am
    15     9    10    2
    16     9    20    1
    17    20    21   ar
    18    21    22   ar
    19    22    23   ar
    20    23    26    1
    21    26    27   ar
    22    27    28   ar
    23    28    29   ar
    24    29    30   ar
    25    23    24   ar
    26    24    25   ar
    27     8    11    1
    28    11    12    1
    29    18    19   ar
    30    19    14   ar
    31     5     1   ar
    32    25    20   ar
    33    11     4    1
    34    30    26   ar
@<TRIPOS>MOLECULE
*****
 30 34 0 0 0
SMALL
GASTEIGER

@<TRIPOS>ATOM
      1 C         143.2772  138.1473  156.5507 C.ar    1  UNL1        0.1856
      2 N         143.8696  139.0214  155.4853 N.ar    1  UNL1       -0.1274
      3 N         144.0485  140.3955  156.0596 N.ar    1  UNL1       -0.1316
      4 C         143.5667  140.3707  157.4799 C.ar    1  UNL1        0.1615
      5 N         143.0900  138.9812  157.7834 N.ar    1  UNL1       -0.2944
      6 C         142.5471  138.6548  159.1431 C.3     1  UNL1        0.1302
      7 C         142.4808  139.7179  160.1992 C.3     1  UNL1        0.1186
      8 N         142.9574  141.1074  159.8957 N.am    1  UNL1       -0.2688
      9 C         142.8912  142.1705  160.9518 C.2     1  UNL1        0.2493
     10 O         143.3678  143.5600  160.6482 O.2     1  UNL1       -0.2699
     11 C         143.5004  141.4338  158.5360 C.3     1  UNL1        0.1343
     12 C         143.9770  142.8233  158.2324 C.3     1  UNL1        0.0298
     13 C         144.2909  133.1588  157.5936 C.3     1  UNL1        0.0538
     14 C         143.4394  134.2001  156.9298 C.ar    1  UNL1        0.0786
     15 C         142.2432  133.7885  156.1238 C.ar    1  UNL1        0.1136
     16 N         141.3917  134.8298  155.4601 N.ar    1  UNL1       -0.2394
     17 C         141.7364  136.2827  155.6024 C.ar    1  UNL1        0.1210
     18 C         142.9326  136.6944  156.4084 C.ar    1  UNL1        0.1358
     19 N         143.7841  135.6531  157.0722 N.ar    1  UNL1       -0.2434
     20 C         142.3483  141.8442  162.3114 C.ar    1  UNL1        0.0536
     21 C         140.8900  142.0394  162.6034 C.ar    1  UNL1        0.0045
     22 C         140.3471  141.7130  163.9631 C.ar    1  UNL1        0.0006
     23 C         141.2624  141.1914  165.0308 C.ar    1  UNL1        0.0060
     24 C         142.7207  140.9961  164.7388 C.ar    1  UNL1        0.0006
     25 C         143.2636  141.3225  163.3792 C.ar    1  UNL1        0.0045
     26 C         140.7195  140.8650  166.3905 C.ar    1  UNL1        0.0295
     27 C         139.5370  139.9889  166.6808 C.ar    1  UNL1        0.0070
     28 C         139.3505  139.9399  168.1683 C.ar    1  UNL1        0.0075
     29 C         140.4178  140.7856  168.7975 C.ar    1  UNL1        0.0354
     30 S         141.2639  141.3574  167.6986 S.2     1  UNL1       -0.0864
@<TRIPOS>BOND
     1    13    14    1
     2    14    15   ar
     3    15    16   ar
     4    16    17   ar
     5    17    18   ar
     6    18     1    1
     7     1     2   ar
     8     2     3   ar
     9     3     4   ar
    10     4     5   ar
    11     5     6    1
    12     6     7    1
    13     7     8    1
    14     8     9   am
    15     9    10    2
    16     9    20    1
    17    20    21   ar
    18    21    22   ar
    19    22    23   ar
    20    23    26    1
    21    26    27   ar
    22    27    28   ar
    23    28    29   ar
    24    29    30   ar
    25    23    24   ar
    26    24    25   ar
    27     8    11    1
    28    11    12    1
    29    18    19   ar
    30    19    14   ar
    31     5     1   ar
    32    25    20   ar
    33    11     4    1
    34    30    26   ar
